MODEL 1
REMARK VINA RESULT:      -6.9      0.000      0.000
REMARK  7 active torsions:
REMARK  status: ('A' for Active; 'I' for Inactive)
REMARK    1  A    between atoms: O1_1  and  C6_11 
REMARK    2  A    between atoms: O2_2  and  C7_12 
REMARK    3  A    between atoms: O3_3  and  C9_14 
REMARK    4  A    between atoms: N1_5  and  C2_7 
REMARK    5  A    between atoms: C1_6  and  C2_7 
REMARK    6  A    between atoms: C1_6  and  C3_8 
REMARK    7  A    between atoms: C2_7  and  C7_12 
ROOT
ATOM      1  C3  UNK     1       2.098  43.098 228.883  1.00  0.00    -0.053 A 
ATOM      2  C4  UNK     1       1.938  43.717 230.111  1.00  0.00     0.046 A 
ATOM      3  C5  UNK     1       3.347  42.724 228.418  1.00  0.00     0.010 A 
ATOM      4  C6  UNK     1       3.061  43.971 230.897  1.00  0.00     0.099 A 
ATOM      5  C8  UNK     1       4.470  42.979 229.205  1.00  0.00     0.040 A 
ATOM      6  C9  UNK     1       4.328  43.602 230.444  1.00  0.00     0.098 A 
ENDROOT
BRANCH   1   7
ATOM      7  C1  UNK     1       0.880  42.823 228.030  1.00  0.00     0.085 C 
BRANCH   7   8
ATOM      8  C2  UNK     1      -0.079  44.021 227.955  1.00  0.00     0.318 C 
BRANCH   8   9
ATOM      9  N1  UNK     1      -0.967  43.871 226.803  1.00  0.00     0.093 N 
ATOM     10  H7  UNK     1      -0.906  44.701 226.215  1.00  0.00     0.314 HD
ATOM     11  H8  UNK     1      -1.936  43.825 227.117  1.00  0.00     0.314 HD
ENDBRANCH   8   9
BRANCH   8  12
ATOM     12  C7  UNK     1       0.659  45.335 227.766  1.00  0.00     0.174 C 
ATOM     13  O4  UNK     1       0.611  46.282 228.539  1.00  0.00    -0.648 OA
BRANCH  12  14
ATOM     14  O2  UNK     1       1.422  45.342 226.642  1.00  0.00    -0.775 OA
ATOM     15  H10 UNK     1       0.903  45.592 225.849  1.00  0.00     0.167 HD
ENDBRANCH  12  14
ENDBRANCH   8  12
ENDBRANCH   7   8
ENDBRANCH   1   7
BRANCH   4  16
ATOM     16  O1  UNK     1       2.910  44.580 232.106  1.00  0.00    -0.358 OA
ATOM     17  H9  UNK     1       3.632  45.222 232.219  1.00  0.00     0.217 HD
ENDBRANCH   4  16
BRANCH   6  18
ATOM     18  O3  UNK     1       5.433  43.843 231.204  1.00  0.00    -0.358 OA
ATOM     19  H11 UNK     1       5.592  43.079 231.783  1.00  0.00     0.217 HD
ENDBRANCH   6  18
TORSDOF 7
ENDMDL
MODEL 2
REMARK VINA RESULT:      -6.8      2.431      2.748
REMARK  7 active torsions:
REMARK  status: ('A' for Active; 'I' for Inactive)
REMARK    1  A    between atoms: O1_1  and  C6_11 
REMARK    2  A    between atoms: O2_2  and  C7_12 
REMARK    3  A    between atoms: O3_3  and  C9_14 
REMARK    4  A    between atoms: N1_5  and  C2_7 
REMARK    5  A    between atoms: C1_6  and  C2_7 
REMARK    6  A    between atoms: C1_6  and  C3_8 
REMARK    7  A    between atoms: C2_7  and  C7_12 
ROOT
ATOM      1  C3  UNK     1       1.272  43.628 229.149  1.00  0.00    -0.053 A 
ATOM      2  C4  UNK     1       1.763  44.137 230.339  1.00  0.00     0.046 A 
ATOM      3  C5  UNK     1       2.095  42.980 228.245  1.00  0.00     0.010 A 
ATOM      4  C6  UNK     1       3.119  43.995 230.633  1.00  0.00     0.099 A 
ATOM      5  C8  UNK     1       3.451  42.839 228.538  1.00  0.00     0.040 A 
ATOM      6  C9  UNK     1       3.963  43.346 229.732  1.00  0.00     0.098 A 
ENDROOT
BRANCH   1   7
ATOM      7  C1  UNK     1      -0.198  43.783 228.831  1.00  0.00     0.085 C 
BRANCH   7   8
ATOM      8  C2  UNK     1      -0.816  42.509 228.232  1.00  0.00     0.318 C 
BRANCH   8   9
ATOM      9  N1  UNK     1      -1.500  42.833 226.981  1.00  0.00     0.093 N 
ATOM     10  H7  UNK     1      -0.944  43.502 226.452  1.00  0.00     0.314 HD
ATOM     11  H8  UNK     1      -2.382  43.303 227.182  1.00  0.00     0.314 HD
ENDBRANCH   8   9
BRANCH   8  12
ATOM     12  C7  UNK     1      -1.858  41.892 229.150  1.00  0.00     0.174 C 
ATOM     13  O4  UNK     1      -2.941  41.454 228.784  1.00  0.00    -0.648 OA
BRANCH  12  14
ATOM     14  O2  UNK     1      -1.445  41.845 230.443  1.00  0.00    -0.775 OA
ATOM     15  H10 UNK     1      -1.271  40.927 230.738  1.00  0.00     0.167 HD
ENDBRANCH  12  14
ENDBRANCH   8  12
ENDBRANCH   7   8
ENDBRANCH   1   7
BRANCH   4  16
ATOM     16  O1  UNK     1       3.608  44.494 231.802  1.00  0.00    -0.358 OA
ATOM     17  H9  UNK     1       2.963  44.313 232.507  1.00  0.00     0.217 HD
ENDBRANCH   4  16
BRANCH   6  18
ATOM     18  O3  UNK     1       5.289  43.199 230.008  1.00  0.00    -0.358 OA
ATOM     19  H11 UNK     1       5.719  42.745 229.265  1.00  0.00     0.217 HD
ENDBRANCH   6  18
TORSDOF 7
ENDMDL
MODEL 3
REMARK VINA RESULT:      -6.6      2.532      5.421
REMARK  7 active torsions:
REMARK  status: ('A' for Active; 'I' for Inactive)
REMARK    1  A    between atoms: O1_1  and  C6_11 
REMARK    2  A    between atoms: O2_2  and  C7_12 
REMARK    3  A    between atoms: O3_3  and  C9_14 
REMARK    4  A    between atoms: N1_5  and  C2_7 
REMARK    5  A    between atoms: C1_6  and  C2_7 
REMARK    6  A    between atoms: C1_6  and  C3_8 
REMARK    7  A    between atoms: C2_7  and  C7_12 
ROOT
ATOM      1  C3  UNK     1       0.672  42.765 228.487  1.00  0.00    -0.053 A 
ATOM      2  C4  UNK     1       0.230  43.164 227.237  1.00  0.00     0.046 A 
ATOM      3  C5  UNK     1      -0.194  42.220 229.420  1.00  0.00     0.010 A 
ATOM      4  C6  UNK     1      -1.118  43.016 226.911  1.00  0.00     0.099 A 
ATOM      5  C8  UNK     1      -1.542  42.073 229.094  1.00  0.00     0.040 A 
ATOM      6  C9  UNK     1      -2.004  42.470 227.840  1.00  0.00     0.098 A 
ENDROOT
BRANCH   1   7
ATOM      7  C1  UNK     1       2.133  42.926 228.840  1.00  0.00     0.085 C 
BRANCH   7   8
ATOM      8  C2  UNK     1       2.378  44.037 229.873  1.00  0.00     0.318 C 
BRANCH   8   9
ATOM      9  N1  UNK     1       2.311  45.344 229.219  1.00  0.00     0.093 N 
ATOM     10  H7  UNK     1       1.357  45.698 229.264  1.00  0.00     0.314 HD
ATOM     11  H8  UNK     1       2.523  45.244 228.227  1.00  0.00     0.314 HD
ENDBRANCH   8   9
BRANCH   8  12
ATOM     12  C7  UNK     1       3.756  43.939 230.505  1.00  0.00     0.174 C 
ATOM     13  O4  UNK     1       4.758  43.524 229.937  1.00  0.00    -0.648 OA
BRANCH  12  14
ATOM     14  O2  UNK     1       3.773  44.398 231.783  1.00  0.00    -0.775 OA
ATOM     15  H10 UNK     1       2.898  44.307 232.215  1.00  0.00     0.167 HD
ENDBRANCH  12  14
ENDBRANCH   8  12
ENDBRANCH   7   8
ENDBRANCH   1   7
BRANCH   4  16
ATOM     16  O1  UNK     1      -1.558  43.407 225.683  1.00  0.00    -0.358 OA
ATOM     17  H9  UNK     1      -2.456  43.058 225.553  1.00  0.00     0.217 HD
ENDBRANCH   4  16
BRANCH   6  18
ATOM     18  O3  UNK     1      -3.323  42.319 227.533  1.00  0.00    -0.358 OA
ATOM     19  H11 UNK     1      -3.458  41.437 227.147  1.00  0.00     0.217 HD
ENDBRANCH   6  18
TORSDOF 7
ENDMDL
MODEL 4
REMARK VINA RESULT:      -6.4      2.926      5.432
REMARK  7 active torsions:
REMARK  status: ('A' for Active; 'I' for Inactive)
REMARK    1  A    between atoms: O1_1  and  C6_11 
REMARK    2  A    between atoms: O2_2  and  C7_12 
REMARK    3  A    between atoms: O3_3  and  C9_14 
REMARK    4  A    between atoms: N1_5  and  C2_7 
REMARK    5  A    between atoms: C1_6  and  C2_7 
REMARK    6  A    between atoms: C1_6  and  C3_8 
REMARK    7  A    between atoms: C2_7  and  C7_12 
ROOT
ATOM      1  C3  UNK     1      -0.032  42.809 228.438  1.00  0.00    -0.053 A 
ATOM      2  C4  UNK     1      -0.242  43.138 227.110  1.00  0.00     0.046 A 
ATOM      3  C5  UNK     1      -1.049  42.298 229.226  1.00  0.00     0.010 A 
ATOM      4  C6  UNK     1      -1.507  42.954 226.553  1.00  0.00     0.099 A 
ATOM      5  C8  UNK     1      -2.315  42.113 228.669  1.00  0.00     0.040 A 
ATOM      6  C9  UNK     1      -2.544  42.441 227.333  1.00  0.00     0.098 A 
ENDROOT
BRANCH   1   7
ATOM      7  C1  UNK     1       1.339  43.010 229.042  1.00  0.00     0.085 C 
BRANCH   7   8
ATOM      8  C2  UNK     1       1.865  44.443 228.865  1.00  0.00     0.318 C 
BRANCH   8   9
ATOM      9  N1  UNK     1       3.098  44.615 229.633  1.00  0.00     0.093 N 
ATOM     10  H7  UNK     1       3.622  45.406 229.262  1.00  0.00     0.314 HD
ATOM     11  H8  UNK     1       3.698  43.801 229.509  1.00  0.00     0.314 HD
ENDBRANCH   8   9
BRANCH   8  12
ATOM     12  C7  UNK     1       0.883  45.482 229.381  1.00  0.00     0.174 C 
ATOM     13  O4  UNK     1       0.451  46.421 228.727  1.00  0.00    -0.648 OA
BRANCH  12  14
ATOM     14  O2  UNK     1       0.500  45.238 230.662  1.00  0.00    -0.775 OA
ATOM     15  H10 UNK     1      -0.217  44.572 230.708  1.00  0.00     0.167 HD
ENDBRANCH  12  14
ENDBRANCH   8  12
ENDBRANCH   7   8
ENDBRANCH   1   7
BRANCH   4  16
ATOM     16  O1  UNK     1      -1.719  43.277 225.247  1.00  0.00    -0.358 OA
ATOM     17  H9  UNK     1      -2.476  43.884 225.200  1.00  0.00     0.217 HD
ENDBRANCH   4  16
BRANCH   6  18
ATOM     18  O3  UNK     1      -3.784  42.254 226.800  1.00  0.00    -0.358 OA
ATOM     19  H11 UNK     1      -4.443  42.676 227.376  1.00  0.00     0.217 HD
ENDBRANCH   6  18
TORSDOF 7
ENDMDL
MODEL 5
REMARK VINA RESULT:      -6.4      2.185      2.404
REMARK  7 active torsions:
REMARK  status: ('A' for Active; 'I' for Inactive)
REMARK    1  A    between atoms: O1_1  and  C6_11 
REMARK    2  A    between atoms: O2_2  and  C7_12 
REMARK    3  A    between atoms: O3_3  and  C9_14 
REMARK    4  A    between atoms: N1_5  and  C2_7 
REMARK    5  A    between atoms: C1_6  and  C2_7 
REMARK    6  A    between atoms: C1_6  and  C3_8 
REMARK    7  A    between atoms: C2_7  and  C7_12 
ROOT
ATOM      1  C3  UNK     1       1.360  42.764 228.450  1.00  0.00    -0.053 A 
ATOM      2  C4  UNK     1       0.965  43.470 229.574  1.00  0.00     0.046 A 
ATOM      3  C5  UNK     1       2.698  42.564 228.156  1.00  0.00     0.010 A 
ATOM      4  C6  UNK     1       1.935  43.992 230.427  1.00  0.00     0.099 A 
ATOM      5  C8  UNK     1       3.669  43.087 229.009  1.00  0.00     0.040 A 
ATOM      6  C9  UNK     1       3.288  43.801 230.145  1.00  0.00     0.098 A 
ENDROOT
BRANCH   1   7
ATOM      7  C1  UNK     1       0.308  42.198 227.524  1.00  0.00     0.085 C 
BRANCH   7   8
ATOM      8  C2  UNK     1      -1.098  42.752 227.809  1.00  0.00     0.318 C 
BRANCH   8   9
ATOM      9  N1  UNK     1      -1.814  41.844 228.705  1.00  0.00     0.093 N 
ATOM     10  H7  UNK     1      -2.637  42.315 229.079  1.00  0.00     0.314 HD
ATOM     11  H8  UNK     1      -1.230  41.623 229.510  1.00  0.00     0.314 HD
ENDBRANCH   8   9
BRANCH   8  12
ATOM     12  C7  UNK     1      -1.935  42.866 226.546  1.00  0.00     0.174 C 
ATOM     13  O4  UNK     1      -3.080  42.452 226.427  1.00  0.00    -0.648 OA
BRANCH  12  14
ATOM     14  O2  UNK     1      -1.281  43.517 225.550  1.00  0.00    -0.775 OA
ATOM     15  H10 UNK     1      -1.145  44.465 225.760  1.00  0.00     0.167 HD
ENDBRANCH  12  14
ENDBRANCH   8  12
ENDBRANCH   7   8
ENDBRANCH   1   7
BRANCH   4  16
ATOM     16  O1  UNK     1       1.552  44.688 231.534  1.00  0.00    -0.358 OA
ATOM     17  H9  UNK     1       1.801  44.174 232.321  1.00  0.00     0.217 HD
ENDBRANCH   4  16
BRANCH   6  18
ATOM     18  O3  UNK     1       4.246  44.305 230.972  1.00  0.00    -0.358 OA
ATOM     19  H11 UNK     1       4.018  44.086 231.891  1.00  0.00     0.217 HD
ENDBRANCH   6  18
TORSDOF 7
ENDMDL
MODEL 6
REMARK VINA RESULT:      -6.4      3.210      5.340
REMARK  7 active torsions:
REMARK  status: ('A' for Active; 'I' for Inactive)
REMARK    1  A    between atoms: O1_1  and  C6_11 
REMARK    2  A    between atoms: O2_2  and  C7_12 
REMARK    3  A    between atoms: O3_3  and  C9_14 
REMARK    4  A    between atoms: N1_5  and  C2_7 
REMARK    5  A    between atoms: C1_6  and  C2_7 
REMARK    6  A    between atoms: C1_6  and  C3_8 
REMARK    7  A    between atoms: C2_7  and  C7_12 
ROOT
ATOM      1  C3  UNK     1       0.061  42.850 228.616  1.00  0.00    -0.053 A 
ATOM      2  C4  UNK     1      -0.497  42.037 229.589  1.00  0.00     0.046 A 
ATOM      3  C5  UNK     1      -0.644  43.206 227.480  1.00  0.00     0.010 A 
ATOM      4  C6  UNK     1      -1.798  41.564 229.418  1.00  0.00     0.099 A 
ATOM      5  C8  UNK     1      -1.945  42.732 227.309  1.00  0.00     0.040 A 
ATOM      6  C9  UNK     1      -2.522  41.912 228.278  1.00  0.00     0.098 A 
ENDROOT
BRANCH   1   7
ATOM      7  C1  UNK     1       1.471  43.362 228.801  1.00  0.00     0.085 C 
BRANCH   7   8
ATOM      8  C2  UNK     1       1.737  43.880 230.223  1.00  0.00     0.318 C 
BRANCH   8   9
ATOM      9  N1  UNK     1       1.024  45.140 230.431  1.00  0.00     0.093 N 
ATOM     10  H7  UNK     1       1.639  45.806 230.895  1.00  0.00     0.314 HD
ATOM     11  H8  UNK     1       0.242  44.993 231.068  1.00  0.00     0.314 HD
ENDBRANCH   8   9
BRANCH   8  12
ATOM     12  C7  UNK     1       3.209  44.169 230.462  1.00  0.00     0.174 C 
ATOM     13  O4  UNK     1       4.048  44.299 229.580  1.00  0.00    -0.648 OA
BRANCH  12  14
ATOM     14  O2  UNK     1       3.501  44.304 231.781  1.00  0.00    -0.775 OA
ATOM     15  H10 UNK     1       2.762  44.711 232.280  1.00  0.00     0.167 HD
ENDBRANCH  12  14
ENDBRANCH   8  12
ENDBRANCH   7   8
ENDBRANCH   1   7
BRANCH   4  16
ATOM     16  O1  UNK     1      -2.351  40.764 230.371  1.00  0.00    -0.358 OA
ATOM     17  H9  UNK     1      -3.300  40.968 230.431  1.00  0.00     0.217 HD
ENDBRANCH   4  16
BRANCH   6  18
ATOM     18  O3  UNK     1      -3.794  41.458 228.101  1.00  0.00    -0.358 OA
ATOM     19  H11 UNK     1      -4.173  41.878 227.310  1.00  0.00     0.217 HD
ENDBRANCH   6  18
TORSDOF 7
ENDMDL
MODEL 7
REMARK VINA RESULT:      -6.3      3.559      5.559
REMARK  7 active torsions:
REMARK  status: ('A' for Active; 'I' for Inactive)
REMARK    1  A    between atoms: O1_1  and  C6_11 
REMARK    2  A    between atoms: O2_2  and  C7_12 
REMARK    3  A    between atoms: O3_3  and  C9_14 
REMARK    4  A    between atoms: N1_5  and  C2_7 
REMARK    5  A    between atoms: C1_6  and  C2_7 
REMARK    6  A    between atoms: C1_6  and  C3_8 
REMARK    7  A    between atoms: C2_7  and  C7_12 
ROOT
ATOM      1  C3  UNK     1      -0.968  42.858 228.393  1.00  0.00    -0.053 A 
ATOM      2  C4  UNK     1      -1.601  42.102 229.365  1.00  0.00     0.046 A 
ATOM      3  C5  UNK     1      -1.541  43.063 227.149  1.00  0.00     0.010 A 
ATOM      4  C6  UNK     1      -2.842  41.532 229.085  1.00  0.00     0.099 A 
ATOM      5  C8  UNK     1      -2.782  42.492 226.869  1.00  0.00     0.040 A 
ATOM      6  C9  UNK     1      -3.433  41.727 227.837  1.00  0.00     0.098 A 
ENDROOT
BRANCH   1   7
ATOM      7  C1  UNK     1       0.378  43.476 228.696  1.00  0.00     0.085 C 
BRANCH   7   8
ATOM      8  C2  UNK     1       0.553  44.865 228.063  1.00  0.00     0.318 C 
BRANCH   8   9
ATOM      9  N1  UNK     1       1.731  44.868 227.197  1.00  0.00     0.093 N 
ATOM     10  H7  UNK     1       1.829  43.958 226.752  1.00  0.00     0.314 HD
ATOM     11  H8  UNK     1       2.572  44.994 227.759  1.00  0.00     0.314 HD
ENDBRANCH   8   9
BRANCH   8  12
ATOM     12  C7  UNK     1       0.779  45.946 229.107  1.00  0.00     0.174 C 
ATOM     13  O4  UNK     1       0.650  47.147 228.910  1.00  0.00    -0.648 OA
BRANCH  12  14
ATOM     14  O2  UNK     1       1.116  45.431 230.318  1.00  0.00    -0.775 OA
ATOM     15  H10 UNK     1       0.426  44.827 230.664  1.00  0.00     0.167 HD
ENDBRANCH  12  14
ENDBRANCH   8  12
ENDBRANCH   7   8
ENDBRANCH   1   7
BRANCH   4  16
ATOM     16  O1  UNK     1      -3.468  40.787 230.038  1.00  0.00    -0.358 OA
ATOM     17  H9  UNK     1      -3.016  40.931 230.887  1.00  0.00     0.217 HD
ENDBRANCH   4  16
BRANCH   6  18
ATOM     18  O3  UNK     1      -4.647  41.176 227.552  1.00  0.00    -0.358 OA
ATOM     19  H11 UNK     1      -5.266  41.386 228.271  1.00  0.00     0.217 HD
ENDBRANCH   6  18
TORSDOF 7
ENDMDL
MODEL 8
REMARK VINA RESULT:      -6.1      3.585      4.007
REMARK  7 active torsions:
REMARK  status: ('A' for Active; 'I' for Inactive)
REMARK    1  A    between atoms: O1_1  and  C6_11 
REMARK    2  A    between atoms: O2_2  and  C7_12 
REMARK    3  A    between atoms: O3_3  and  C9_14 
REMARK    4  A    between atoms: N1_5  and  C2_7 
REMARK    5  A    between atoms: C1_6  and  C2_7 
REMARK    6  A    between atoms: C1_6  and  C3_8 
REMARK    7  A    between atoms: C2_7  and  C7_12 
ROOT
ATOM      1  C3  UNK     1       0.032  42.636 228.638  1.00  0.00    -0.053 A 
ATOM      2  C4  UNK     1       0.214  43.436 229.753  1.00  0.00     0.046 A 
ATOM      3  C5  UNK     1       1.102  42.224 227.862  1.00  0.00     0.010 A 
ATOM      4  C6  UNK     1       1.503  43.838 230.101  1.00  0.00     0.099 A 
ATOM      5  C8  UNK     1       2.391  42.626 228.210  1.00  0.00     0.040 A 
ATOM      6  C9  UNK     1       2.592  43.433 229.330  1.00  0.00     0.098 A 
ENDROOT
BRANCH   1   7
ATOM      7  C1  UNK     1      -1.365  42.201 228.260  1.00  0.00     0.085 C 
BRANCH   7   8
ATOM      8  C2  UNK     1      -2.092  41.470 229.400  1.00  0.00     0.318 C 
BRANCH   8   9
ATOM      9  N1  UNK     1      -1.382  40.234 229.725  1.00  0.00     0.093 N 
ATOM     10  H7  UNK     1      -1.009  39.821 228.872  1.00  0.00     0.314 HD
ATOM     11  H8  UNK     1      -2.036  39.549 230.102  1.00  0.00     0.314 HD
ENDBRANCH   8   9
BRANCH   8  12
ATOM     12  C7  UNK     1      -3.506  41.070 229.015  1.00  0.00     0.174 C 
ATOM     13  O4  UNK     1      -3.903  40.923 227.866  1.00  0.00    -0.648 OA
BRANCH  12  14
ATOM     14  O2  UNK     1      -4.295  40.855 230.099  1.00  0.00    -0.775 OA
ATOM     15  H10 UNK     1      -4.591  41.696 230.508  1.00  0.00     0.167 HD
ENDBRANCH  12  14
ENDBRANCH   8  12
ENDBRANCH   7   8
ENDBRANCH   1   7
BRANCH   4  16
ATOM     16  O1  UNK     1       1.687  44.626 231.197  1.00  0.00    -0.358 OA
ATOM     17  H9  UNK     1       0.834  45.028 231.434  1.00  0.00     0.217 HD
ENDBRANCH   4  16
BRANCH   6  18
ATOM     18  O3  UNK     1       3.856  43.817 229.661  1.00  0.00    -0.358 OA
ATOM     19  H11 UNK     1       4.471  43.093 229.456  1.00  0.00     0.217 HD
ENDBRANCH   6  18
TORSDOF 7
ENDMDL
MODEL 9
REMARK VINA RESULT:      -5.7      3.733      4.371
REMARK  7 active torsions:
REMARK  status: ('A' for Active; 'I' for Inactive)
REMARK    1  A    between atoms: O1_1  and  C6_11 
REMARK    2  A    between atoms: O2_2  and  C7_12 
REMARK    3  A    between atoms: O3_3  and  C9_14 
REMARK    4  A    between atoms: N1_5  and  C2_7 
REMARK    5  A    between atoms: C1_6  and  C2_7 
REMARK    6  A    between atoms: C1_6  and  C3_8 
REMARK    7  A    between atoms: C2_7  and  C7_12 
ROOT
ATOM      1  C3  UNK     1      -0.175  42.748 228.641  1.00  0.00    -0.053 A 
ATOM      2  C4  UNK     1       0.907  42.128 228.040  1.00  0.00     0.046 A 
ATOM      3  C5  UNK     1      -0.004  43.740 229.592  1.00  0.00     0.010 A 
ATOM      4  C6  UNK     1       2.198  42.509 228.401  1.00  0.00     0.099 A 
ATOM      5  C8  UNK     1       1.288  44.120 229.954  1.00  0.00     0.040 A 
ATOM      6  C9  UNK     1       2.389  43.505 229.359  1.00  0.00     0.098 A 
ENDROOT
BRANCH   1   7
ATOM      7  C1  UNK     1      -1.576  42.334 228.249  1.00  0.00     0.085 C 
BRANCH   7   8
ATOM      8  C2  UNK     1      -2.417  41.867 229.448  1.00  0.00     0.318 C 
BRANCH   8   9
ATOM      9  N1  UNK     1      -1.647  40.918 230.251  1.00  0.00     0.093 N 
ATOM     10  H7  UNK     1      -1.008  41.427 230.859  1.00  0.00     0.314 HD
ATOM     11  H8  UNK     1      -1.060  40.349 229.644  1.00  0.00     0.314 HD
ENDBRANCH   8   9
BRANCH   8  12
ATOM     12  C7  UNK     1      -3.680  41.144 229.013  1.00  0.00     0.174 C 
ATOM     13  O4  UNK     1      -4.507  40.661 229.776  1.00  0.00    -0.648 OA
BRANCH  12  14
ATOM     14  O2  UNK     1      -3.820  41.114 227.663  1.00  0.00    -0.775 OA
ATOM     15  H10 UNK     1      -3.155  41.677 227.214  1.00  0.00     0.167 HD
ENDBRANCH  12  14
ENDBRANCH   8  12
ENDBRANCH   7   8
ENDBRANCH   1   7
BRANCH   4  16
ATOM     16  O1  UNK     1       3.267  41.902 227.813  1.00  0.00    -0.358 OA
ATOM     17  H9  UNK     1       3.186  40.942 227.947  1.00  0.00     0.217 HD
ENDBRANCH   4  16
BRANCH   6  18
ATOM     18  O3  UNK     1       3.646  43.888 229.719  1.00  0.00    -0.358 OA
ATOM     19  H11 UNK     1       3.605  44.773 230.117  1.00  0.00     0.217 HD
ENDBRANCH   6  18
TORSDOF 7
ENDMDL
