REMARK  10 active torsions:
REMARK  status: ('A' for Active; 'I' for Inactive)
REMARK    1  A    between atoms: O1_1  and  C10_17 
REMARK    2  A    between atoms: O2_2  and  C11_18 
REMARK    3  A    between atoms: O4_4  and  C22_29 
REMARK    4  A    between atoms: O5_5  and  C23_30 
REMARK    5  A    between atoms: N1_6  and  C5_12 
REMARK    6  A    between atoms: N1_6  and  C7_14 
REMARK    7  A    between atoms: N2_7  and  C12_19 
REMARK    8  A    between atoms: C1_8  and  C5_12 
REMARK    9  A    between atoms: C7_14  and  C9_16 
REMARK   10  A    between atoms: C9_16  and  C12_19 
ROOT
ATOM      1  C9  UNK     1     -48.390   2.362  21.130  1.00  0.00     0.050 C 
ENDROOT
BRANCH   1   2
ATOM      2  C7  UNK     1     -48.969   2.556  22.534  1.00  0.00     0.273 C 
BRANCH   2   3
ATOM      3  N1  UNK     1     -50.208   1.809  22.719  1.00  0.00     0.085 N 
ATOM      4  C13 UNK     1     -49.925   0.398  22.985  1.00  0.00     0.309 C 
BRANCH   3   5
ATOM      5  C5  UNK     1     -50.998   2.382  23.811  1.00  0.00     0.281 C 
BRANCH   5   6
ATOM      6  C1  UNK     1     -51.709   3.649  23.359  1.00  0.00     0.052 A 
ATOM      7  C2  UNK     1     -52.776   3.442  22.233  1.00  0.00     0.050 A 
ATOM      8  C4  UNK     1     -53.796   3.839  23.259  1.00  0.00    -0.048 A 
ATOM      9  C3  UNK     1     -52.859   4.022  24.248  1.00  0.00    -0.043 A 
ATOM     10  C8  UNK     1     -55.138   4.042  23.479  1.00  0.00     0.047 A 
ATOM     11  C6  UNK     1     -53.205   4.418  25.518  1.00  0.00     0.047 A 
ATOM     12  C10 UNK     1     -54.562   4.631  25.773  1.00  0.00     0.102 A 
ATOM     13  C11 UNK     1     -55.523   4.444  24.759  1.00  0.00     0.102 A 
BRANCH  12  14
ATOM     14  O1  UNK     1     -54.950   5.025  27.020  1.00  0.00    -0.353 OA
ATOM     15  C24 UNK     1     -53.923   5.195  27.994  1.00  0.00     0.210 C 
ENDBRANCH  12  14
BRANCH  13  16
ATOM     16  O2  UNK     1     -56.844   4.657  25.022  1.00  0.00    -0.353 OA
ATOM     17  C25 UNK     1     -57.758   4.448  23.947  1.00  0.00     0.210 C 
ENDBRANCH  13  16
ENDBRANCH   5   6
ENDBRANCH   3   5
ENDBRANCH   2   3
ENDBRANCH   1   2
BRANCH   1  18
ATOM     18  C12 UNK     1     -47.081   3.110  20.879  1.00  0.00     0.127 C 
BRANCH  18  19
ATOM     19  N2  UNK     1     -47.230   4.553  21.006  1.00  0.00    -0.352 N 
ATOM     20  C14 UNK     1     -47.778   5.271  19.859  1.00  0.00     0.130 C 
ATOM     21  C15 UNK     1     -49.238   5.656  20.085  1.00  0.00     0.059 C 
ATOM     22  C17 UNK     1     -49.561   6.616  21.213  1.00  0.00    -0.047 A 
ATOM     23  C19 UNK     1     -48.654   7.065  22.196  1.00  0.00    -0.040 A 
ATOM     24  C20 UNK     1     -50.900   7.056  21.277  1.00  0.00     0.047 A 
ATOM     25  C18 UNK     1     -47.195   6.684  22.225  1.00  0.00     0.142 C 
ATOM     26  C21 UNK     1     -49.112   7.954  23.190  1.00  0.00     0.047 A 
ATOM     27  C16 UNK     1     -46.963   5.188  22.216  1.00  0.00     0.224 C 
ATOM     28  O3  UNK     1     -46.563   4.618  23.233  1.00  0.00    -0.273 OA
ATOM     29  C23 UNK     1     -50.439   8.379  23.231  1.00  0.00     0.102 A 
ATOM     30  C22 UNK     1     -51.335   7.928  22.273  1.00  0.00     0.102 A 
BRANCH  29  31
ATOM     31  O5  UNK     1     -50.840   9.236  24.211  1.00  0.00    -0.353 OA
ATOM     32  C27 UNK     1     -51.327   8.656  25.420  1.00  0.00     0.210 C 
ENDBRANCH  29  31
BRANCH  30  33
ATOM     33  O4  UNK     1     -52.637   8.328  22.294  1.00  0.00    -0.353 OA
ATOM     34  C26 UNK     1     -53.490   7.815  21.273  1.00  0.00     0.210 C 
ENDBRANCH  30  33
ENDBRANCH  18  19
ENDBRANCH   1  18
TORSDOF 10
