REMARK  6 active torsions:
REMARK  status: ('A' for Active; 'I' for Inactive)
REMARK       I    between atoms: N1_5  and  C6_16 
REMARK    1  A    between atoms: N2_6  and  C5_15 
REMARK       I    between atoms: N2_6  and  C11_21 
REMARK       I    between atoms: N4_8  and  C8_18 
REMARK    2  A    between atoms: C1_11  and  C8_18 
REMARK    3  A    between atoms: C5_15  and  C6_16 
REMARK    4  A    between atoms: C5_15  and  C9_19 
REMARK    5  A    between atoms: C7_17  and  C11_21 
REMARK    6  A    between atoms: C9_19  and  C14_24 
ROOT
ATOM      1  C5  UNK     1     -51.016   4.422  22.768  1.00  0.00     0.182 C 
ENDROOT
BRANCH   1   2
ATOM      2  N2  UNK     1     -52.423   4.411  23.051  1.00  0.00    -0.346 N 
ATOM      3  C11 UNK     1     -52.965   4.818  24.264  1.00  0.00     0.241 C 
ATOM      4  O3  UNK     1     -52.327   5.230  25.229  1.00  0.00    -0.271 OA
ATOM      5  H14 UNK     1     -53.053   4.120  22.309  1.00  0.00     0.163 HD
BRANCH   3   6
ATOM      6  C7  UNK     1     -54.457   4.729  24.285  1.00  0.00     0.177 C 
ATOM      7  N3  UNK     1     -54.881   5.182  25.580  1.00  0.00    -0.348 N 
ATOM      8  C13 UNK     1     -55.363   6.486  25.567  1.00  0.00     0.218 C 
ATOM      9  H17 UNK     1     -54.801   4.627  26.426  1.00  0.00     0.163 HD
ATOM     10  O4  UNK     1     -55.751   7.140  26.523  1.00  0.00    -0.274 OA
ATOM     11  C12 UNK     1     -55.280   6.984  24.145  1.00  0.00     0.105 C 
ATOM     12  C10 UNK     1     -55.118   5.703  23.327  1.00  0.00     0.044 C 
ENDBRANCH   3   6
ENDBRANCH   1   2
BRANCH   1  13
ATOM     13  C6  UNK     1     -50.759   5.839  22.320  1.00  0.00     0.243 C 
ATOM     14  O1  UNK     1     -51.608   6.449  21.668  1.00  0.00    -0.271 OA
ATOM     15  N1  UNK     1     -49.529   6.367  22.682  1.00  0.00    -0.337 N 
ATOM     16  C1  UNK     1     -49.185   7.766  22.471  1.00  0.00     0.179 C 
ATOM     17  C3  UNK     1     -48.496   5.680  23.453  1.00  0.00     0.127 C 
ATOM     18  C2  UNK     1     -48.000   8.018  23.396  1.00  0.00     0.037 C 
ATOM     19  C4  UNK     1     -47.325   6.651  23.487  1.00  0.00     0.022 C 
BRANCH  16  20
ATOM     20  C8  UNK     1     -48.807   7.916  21.028  1.00  0.00     0.238 C 
ATOM     21  O2  UNK     1     -48.805   6.963  20.252  1.00  0.00    -0.271 OA
ATOM     22  N4  UNK     1     -48.452   9.196  20.678  1.00  0.00    -0.368 N 
ATOM     23  H18 UNK     1     -48.169   9.418  19.729  1.00  0.00     0.159 HD
ATOM     24  H19 UNK     1     -48.474   9.968  21.338  1.00  0.00     0.159 HD
ENDBRANCH  16  20
ENDBRANCH   1  13
BRANCH   1  25
ATOM     25  C9  UNK     1     -50.610   3.441  21.676  1.00  0.00     0.093 C 
BRANCH  25  26
ATOM     26  C14 UNK     1     -50.408   2.047  22.221  1.00  0.00     0.030 A 
ATOM     27  N5  UNK     1     -49.227   1.371  22.104  1.00  0.00    -0.353 N 
ATOM     28  C16 UNK     1     -49.390   0.153  22.700  1.00  0.00     0.207 A 
ATOM     29  H20 UNK     1     -48.383   1.708  21.658  1.00  0.00     0.166 HD
ATOM     30  N6  UNK     1     -50.601   0.008  23.191  1.00  0.00    -0.254 NA
ATOM     31  C15 UNK     1     -51.242   1.186  22.895  1.00  0.00     0.143 A 
ENDBRANCH  25  26
ENDBRANCH   1  25
TORSDOF 6
