REMARK  16 active torsions:
REMARK  status: ('A' for Active; 'I' for Inactive)
REMARK    1  A    between atoms: O1_1  and  C3_8 
REMARK    2  A    between atoms: O3_3  and  C11_16 
REMARK    3  A    between atoms: O4_4  and  C21_26 
REMARK    4  A    between atoms: C1_6  and  C5_10 
REMARK    5  A    between atoms: C2_7  and  C7_12 
REMARK    6  A    between atoms: C5_10  and  C8_13 
REMARK    7  A    between atoms: C8_13  and  C9_14 
REMARK    8  A    between atoms: C9_14  and  C13_18 
REMARK    9  A    between atoms: C10_15  and  C12_17 
REMARK   10  A    between atoms: C11_16  and  C12_17 
REMARK   11  A    between atoms: C11_16  and  C14_19 
REMARK   12  A    between atoms: C13_18  and  C16_21 
REMARK   13  A    between atoms: C14_19  and  C17_22 
REMARK   14  A    between atoms: C16_21  and  C19_24 
REMARK   15  A    between atoms: C17_22  and  C18_23 
REMARK   16  A    between atoms: C19_24  and  C21_26 
ROOT
ATOM      1  O2  UNK     1     -50.898   9.384  22.490  1.00  0.00    -0.297 OA
ATOM      2  C1  UNK     1     -49.928   7.190  22.117  1.00  0.00     0.065 C 
ATOM      3  C2  UNK     1     -48.420   6.900  22.055  1.00  0.00     0.048 C 
ATOM      4  C3  UNK     1     -47.858   8.062  21.226  1.00  0.00     0.133 C 
ATOM      5  C4  UNK     1     -48.617   9.291  21.722  1.00  0.00     0.111 C 
ATOM      6  C6  UNK     1     -49.935   8.705  22.156  1.00  0.00     0.134 C 
ENDROOT
BRANCH   3   7
ATOM      7  C7  UNK     1     -48.115   5.561  21.465  1.00  0.00    -0.023 C 
ATOM      8  C10 UNK     1     -47.429   4.603  22.104  1.00  0.00    -0.027 C 
BRANCH   8   9
ATOM      9  C12 UNK     1     -47.116   3.257  21.505  1.00  0.00     0.064 C 
BRANCH   9  10
ATOM     10  C11 UNK     1     -47.708   2.055  22.284  1.00  0.00     0.057 C 
ATOM     11  C15 UNK     1     -47.352   0.719  21.620  1.00  0.00     0.046 C 
BRANCH  10  12
ATOM     12  O3  UNK     1     -47.154   2.043  23.602  1.00  0.00    -0.390 OA
ATOM     13  H28 UNK     1     -46.188   1.960  23.522  1.00  0.00     0.210 HD
ENDBRANCH  10  12
BRANCH  10  14
ATOM     14  C14 UNK     1     -49.241   2.243  22.398  1.00  0.00     0.038 C 
BRANCH  14  15
ATOM     15  C17 UNK     1     -49.984   2.315  21.057  1.00  0.00     0.002 C 
BRANCH  15  16
ATOM     16  C18 UNK     1     -51.475   2.587  21.267  1.00  0.00    -0.004 C 
ATOM     17  C20 UNK     1     -52.214   2.691  19.942  1.00  0.00     0.005 C 
ENDBRANCH  15  16
ENDBRANCH  14  15
ENDBRANCH  10  14
ENDBRANCH   9  10
ENDBRANCH   8   9
ENDBRANCH   3   7
BRANCH   2  18
ATOM     18  C5  UNK     1     -50.611   6.573  23.327  1.00  0.00     0.013 C 
BRANCH  18  19
ATOM     19  C8  UNK     1     -52.133   6.618  23.195  1.00  0.00     0.001 C 
BRANCH  19  20
ATOM     20  C9  UNK     1     -52.816   5.966  24.398  1.00  0.00     0.000 C 
BRANCH  20  21
ATOM     21  C13 UNK     1     -54.339   5.981  24.249  1.00  0.00     0.000 C 
BRANCH  21  22
ATOM     22  C16 UNK     1     -55.020   5.298  25.439  1.00  0.00     0.010 C 
BRANCH  22  23
ATOM     23  C19 UNK     1     -56.542   5.273  25.305  1.00  0.00     0.111 C 
BRANCH  23  24
ATOM     24  C21 UNK     1     -57.236   4.664  26.504  1.00  0.00     0.258 C 
ATOM     25  O5  UNK     1     -56.673   4.232  27.501  1.00  0.00    -0.265 OA
BRANCH  24  26
ATOM     26  O4  UNK     1     -58.587   4.706  26.304  1.00  0.00    -0.326 OA
ATOM     27  C22 UNK     1     -59.385   4.190  27.373  1.00  0.00     0.213 C 
ENDBRANCH  24  26
ENDBRANCH  23  24
ENDBRANCH  22  23
ENDBRANCH  21  22
ENDBRANCH  20  21
ENDBRANCH  19  20
ENDBRANCH  18  19
ENDBRANCH   2  18
BRANCH   4  28
ATOM     28  O1  UNK     1     -46.467   8.206  21.467  1.00  0.00    -0.394 OA
ATOM     29  H16 UNK     1     -46.169   8.997  20.987  1.00  0.00     0.210 HD
ENDBRANCH   4  28
TORSDOF 16
