MODEL 1
REMARK VINA RESULT:      -5.7      0.000      0.000
REMARK  5 active torsions:
REMARK  status: ('A' for Active; 'I' for Inactive)
REMARK    1  A    between atoms: C1_1  and  C4_4 
REMARK    2  A    between atoms: C1_1  and  O1_6 
REMARK    3  A    between atoms: C2_2  and  C4_4 
REMARK    4  A    between atoms: C2_2  and  S1_10 
REMARK       I    between atoms: C3_3  and  N1_5 
REMARK    5  A    between atoms: C4_4  and  N1_5 
ROOT
ATOM      1  C4  UNK     1       1.505  45.143 228.729  1.00  0.00     0.191 C 
ENDROOT
BRANCH   1   2
ATOM      2  C1  UNK     1       1.133  46.590 228.891  1.00  0.00     0.164 C 
ATOM      3  O2  UNK     1       0.406  46.929 229.860  1.00  0.00    -0.648 OA
BRANCH   2   4
ATOM      4  O1  UNK     1       1.587  47.403 228.045  1.00  0.00    -0.775 OA
ATOM      5  H5  UNK     1       0.869  47.770 227.542  1.00  0.00     0.167 HD
ENDBRANCH   2   4
ENDBRANCH   1   2
BRANCH   1   6
ATOM      6  C2  UNK     1       0.284  44.347 228.267  1.00  0.00     0.106 C 
BRANCH   6   7
ATOM      7  S1  UNK     1      -0.264  43.162 229.533  1.00  0.00    -0.180 SA
ATOM      8  H9  UNK     1      -0.601  43.949 230.512  1.00  0.00     0.101 HD
ENDBRANCH   6   7
ENDBRANCH   1   6
BRANCH   1   9
ATOM      9  N1  UNK     1       2.088  44.555 229.924  1.00  0.00    -0.346 N 
ATOM     10  C3  UNK     1       3.331  44.076 229.945  1.00  0.00     0.214 C 
ATOM     11  O3  UNK     1       4.311  44.620 230.108  1.00  0.00    -0.274 OA
ATOM     12  C5  UNK     1       3.667  42.928 229.023  1.00  0.00     0.117 C 
ATOM     13  H1  UNK     1       1.538  44.506 230.758  1.00  0.00     0.163 HD
ENDBRANCH   1   9
TORSDOF 5
ENDMDL
MODEL 2
REMARK VINA RESULT:      -5.0      1.368      3.747
REMARK  5 active torsions:
REMARK  status: ('A' for Active; 'I' for Inactive)
REMARK    1  A    between atoms: C1_1  and  C4_4 
REMARK    2  A    between atoms: C1_1  and  O1_6 
REMARK    3  A    between atoms: C2_2  and  C4_4 
REMARK    4  A    between atoms: C2_2  and  S1_10 
REMARK       I    between atoms: C3_3  and  N1_5 
REMARK    5  A    between atoms: C4_4  and  N1_5 
ROOT
ATOM      1  C4  UNK     1       2.659  43.962 229.662  1.00  0.00     0.191 C 
ENDROOT
BRANCH   1   2
ATOM      2  C1  UNK     1       3.775  43.960 230.668  1.00  0.00     0.164 C 
ATOM      3  O2  UNK     1       4.919  43.578 230.310  1.00  0.00    -0.648 OA
BRANCH   2   4
ATOM      4  O1  UNK     1       3.508  44.360 231.830  1.00  0.00    -0.775 OA
ATOM      5  H5  UNK     1       4.273  44.254 232.384  1.00  0.00     0.167 HD
ENDBRANCH   2   4
ENDBRANCH   1   2
BRANCH   1   6
ATOM      6  C2  UNK     1       2.978  42.975 228.538  1.00  0.00     0.106 C 
BRANCH   6   7
ATOM      7  S1  UNK     1       1.549  41.921 228.144  1.00  0.00    -0.180 SA
ATOM      8  H9  UNK     1       0.645  42.800 227.822  1.00  0.00     0.101 HD
ENDBRANCH   6   7
ENDBRANCH   1   6
BRANCH   1   9
ATOM      9  N1  UNK     1       2.360  45.280 229.126  1.00  0.00    -0.346 N 
ATOM     10  C3  UNK     1       1.114  45.746 229.043  1.00  0.00     0.214 C 
ATOM     11  O3  UNK     1       0.482  46.259 229.829  1.00  0.00    -0.274 OA
ATOM     12  C5  UNK     1       0.132  44.996 228.175  1.00  0.00     0.117 C 
ATOM     13  H1  UNK     1       3.113  45.857 228.810  1.00  0.00     0.163 HD
ENDBRANCH   1   9
TORSDOF 5
ENDMDL
MODEL 3
REMARK VINA RESULT:      -5.0      2.796      3.899
REMARK  5 active torsions:
REMARK  status: ('A' for Active; 'I' for Inactive)
REMARK    1  A    between atoms: C1_1  and  C4_4 
REMARK    2  A    between atoms: C1_1  and  O1_6 
REMARK    3  A    between atoms: C2_2  and  C4_4 
REMARK    4  A    between atoms: C2_2  and  S1_10 
REMARK       I    between atoms: C3_3  and  N1_5 
REMARK    5  A    between atoms: C4_4  and  N1_5 
ROOT
ATOM      1  C4  UNK     1       1.096  43.789 228.118  1.00  0.00     0.191 C 
ENDROOT
BRANCH   1   2
ATOM      2  C1  UNK     1       0.959  45.243 227.765  1.00  0.00     0.164 C 
ATOM      3  O2  UNK     1       0.371  46.013 228.566  1.00  0.00    -0.648 OA
BRANCH   2   4
ATOM      4  O1  UNK     1       1.460  45.624 226.676  1.00  0.00    -0.775 OA
ATOM      5  H5  UNK     1       2.368  45.870 226.815  1.00  0.00     0.167 HD
ENDBRANCH   2   4
ENDBRANCH   1   2
BRANCH   1   6
ATOM      6  C2  UNK     1       2.576  43.432 228.264  1.00  0.00     0.106 C 
BRANCH   6   7
ATOM      7  S1  UNK     1       3.262  44.045 229.833  1.00  0.00    -0.180 SA
ATOM      8  H9  UNK     1       4.541  43.919 229.635  1.00  0.00     0.101 HD
ENDBRANCH   6   7
ENDBRANCH   1   6
BRANCH   1   9
ATOM      9  N1  UNK     1       0.437  42.897 227.177  1.00  0.00    -0.346 N 
ATOM     10  C3  UNK     1      -0.890  42.840 227.064  1.00  0.00     0.214 C 
ATOM     11  O3  UNK     1      -1.591  43.494 226.462  1.00  0.00    -0.274 OA
ATOM     12  C5  UNK     1      -1.689  42.414 228.272  1.00  0.00     0.117 C 
ATOM     13  H1  UNK     1       0.997  42.306 226.596  1.00  0.00     0.163 HD
ENDBRANCH   1   9
TORSDOF 5
ENDMDL
MODEL 4
REMARK VINA RESULT:      -4.9      2.280      2.957
REMARK  5 active torsions:
REMARK  status: ('A' for Active; 'I' for Inactive)
REMARK    1  A    between atoms: C1_1  and  C4_4 
REMARK    2  A    between atoms: C1_1  and  O1_6 
REMARK    3  A    between atoms: C2_2  and  C4_4 
REMARK    4  A    between atoms: C2_2  and  S1_10 
REMARK       I    between atoms: C3_3  and  N1_5 
REMARK    5  A    between atoms: C4_4  and  N1_5 
ROOT
ATOM      1  C4  UNK     1       1.062  45.008 229.134  1.00  0.00     0.191 C 
ENDROOT
BRANCH   1   2
ATOM      2  C1  UNK     1       1.008  46.494 228.920  1.00  0.00     0.164 C 
ATOM      3  O2  UNK     1       0.471  47.219 229.796  1.00  0.00    -0.648 OA
BRANCH   2   4
ATOM      4  O1  UNK     1       1.523  46.946 227.865  1.00  0.00    -0.775 OA
ATOM      5  H5  UNK     1       2.444  47.126 228.015  1.00  0.00     0.167 HD
ENDBRANCH   2   4
ENDBRANCH   1   2
BRANCH   1   6
ATOM      6  C2  UNK     1       2.357  44.450 228.542  1.00  0.00     0.106 C 
BRANCH   6   7
ATOM      7  S1  UNK     1       3.582  44.081 229.834  1.00  0.00    -0.180 SA
ATOM      8  H9  UNK     1       4.669  43.920 229.139  1.00  0.00     0.101 HD
ENDBRANCH   6   7
ENDBRANCH   1   6
BRANCH   1   9
ATOM      9  N1  UNK     1      -0.095  44.302 228.610  1.00  0.00    -0.346 N 
ATOM     10  C3  UNK     1      -0.486  43.123 229.096  1.00  0.00     0.214 C 
ATOM     11  O3  UNK     1      -1.137  42.893 229.994  1.00  0.00    -0.274 OA
ATOM     12  C5  UNK     1       0.470  41.959 228.992  1.00  0.00     0.117 C 
ATOM     13  H1  UNK     1      -0.616  44.712 227.861  1.00  0.00     0.163 HD
ENDBRANCH   1   9
TORSDOF 5
ENDMDL
MODEL 5
REMARK VINA RESULT:      -4.3      2.951      4.204
REMARK  5 active torsions:
REMARK  status: ('A' for Active; 'I' for Inactive)
REMARK    1  A    between atoms: C1_1  and  C4_4 
REMARK    2  A    between atoms: C1_1  and  O1_6 
REMARK    3  A    between atoms: C2_2  and  C4_4 
REMARK    4  A    between atoms: C2_2  and  S1_10 
REMARK       I    between atoms: C3_3  and  N1_5 
REMARK    5  A    between atoms: C4_4  and  N1_5 
ROOT
ATOM      1  C4  UNK     1       0.869  43.553 228.180  1.00  0.00     0.191 C 
ENDROOT
BRANCH   1   2
ATOM      2  C1  UNK     1       2.100  42.783 228.565  1.00  0.00     0.164 C 
ATOM      3  O2  UNK     1       2.774  43.164 229.557  1.00  0.00    -0.648 OA
BRANCH   2   4
ATOM      4  O1  UNK     1       2.392  41.774 227.874  1.00  0.00    -0.775 OA
ATOM      5  H5  UNK     1       1.679  41.585 227.273  1.00  0.00     0.167 HD
ENDBRANCH   2   4
ENDBRANCH   1   2
BRANCH   1   6
ATOM      6  C2  UNK     1       1.269  44.920 227.624  1.00  0.00     0.106 C 
BRANCH   6   7
ATOM      7  S1  UNK     1       1.074  46.234 228.865  1.00  0.00    -0.180 SA
ATOM      8  H9  UNK     1      -0.009  46.829 228.461  1.00  0.00     0.101 HD
ENDBRANCH   6   7
ENDBRANCH   1   6
BRANCH   1   9
ATOM      9  N1  UNK     1      -0.092  43.694 229.262  1.00  0.00    -0.346 N 
ATOM     10  C3  UNK     1      -0.948  42.723 229.581  1.00  0.00     0.214 C 
ATOM     11  O3  UNK     1      -0.798  41.818 230.244  1.00  0.00    -0.274 OA
ATOM     12  C5  UNK     1      -1.948  42.287 228.538  1.00  0.00     0.117 C 
ATOM     13  H1  UNK     1      -0.112  44.546 229.785  1.00  0.00     0.163 HD
ENDBRANCH   1   9
TORSDOF 5
ENDMDL
MODEL 6
REMARK VINA RESULT:      -4.3      2.949      3.584
REMARK  5 active torsions:
REMARK  status: ('A' for Active; 'I' for Inactive)
REMARK    1  A    between atoms: C1_1  and  C4_4 
REMARK    2  A    between atoms: C1_1  and  O1_6 
REMARK    3  A    between atoms: C2_2  and  C4_4 
REMARK    4  A    between atoms: C2_2  and  S1_10 
REMARK       I    between atoms: C3_3  and  N1_5 
REMARK    5  A    between atoms: C4_4  and  N1_5 
ROOT
ATOM      1  C4  UNK     1       1.713  43.839 229.359  1.00  0.00     0.191 C 
ENDROOT
BRANCH   1   2
ATOM      2  C1  UNK     1       0.451  44.430 229.922  1.00  0.00     0.164 C 
ATOM      3  O2  UNK     1       0.373  45.677 230.068  1.00  0.00    -0.648 OA
BRANCH   2   4
ATOM      4  O1  UNK     1      -0.481  43.637 230.210  1.00  0.00    -0.775 OA
ATOM      5  H5  UNK     1      -0.998  43.461 229.432  1.00  0.00     0.167 HD
ENDBRANCH   2   4
ENDBRANCH   1   2
BRANCH   1   6
ATOM      6  C2  UNK     1       2.886  44.784 229.623  1.00  0.00     0.106 C 
BRANCH   6   7
ATOM      7  S1  UNK     1       4.232  43.951 230.518  1.00  0.00    -0.180 SA
ATOM      8  H9  UNK     1       3.874  44.112 231.757  1.00  0.00     0.101 HD
ENDBRANCH   6   7
ENDBRANCH   1   6
BRANCH   1   9
ATOM      9  N1  UNK     1       1.621  43.508 227.947  1.00  0.00    -0.346 N 
ATOM     10  C3  UNK     1       0.800  42.561 227.493  1.00  0.00     0.214 C 
ATOM     11  O3  UNK     1      -0.301  42.624 227.234  1.00  0.00    -0.274 OA
ATOM     12  C5  UNK     1       1.012  41.146 227.974  1.00  0.00     0.117 C 
ATOM     13  H1  UNK     1       2.192  44.005 227.294  1.00  0.00     0.163 HD
ENDBRANCH   1   9
TORSDOF 5
ENDMDL
MODEL 7
REMARK VINA RESULT:      -4.2      2.791      3.704
REMARK  5 active torsions:
REMARK  status: ('A' for Active; 'I' for Inactive)
REMARK    1  A    between atoms: C1_1  and  C4_4 
REMARK    2  A    between atoms: C1_1  and  O1_6 
REMARK    3  A    between atoms: C2_2  and  C4_4 
REMARK    4  A    between atoms: C2_2  and  S1_10 
REMARK       I    between atoms: C3_3  and  N1_5 
REMARK    5  A    between atoms: C4_4  and  N1_5 
ROOT
ATOM      1  C4  UNK     1      -0.401  43.695 227.915  1.00  0.00     0.191 C 
ENDROOT
BRANCH   1   2
ATOM      2  C1  UNK     1      -0.146  42.694 229.007  1.00  0.00     0.164 C 
ATOM      3  O2  UNK     1       0.484  41.640 228.735  1.00  0.00    -0.648 OA
BRANCH   2   4
ATOM      4  O1  UNK     1      -0.570  42.972 230.158  1.00  0.00    -0.775 OA
ATOM      5  H5  UNK     1      -0.642  43.915 230.249  1.00  0.00     0.167 HD
ENDBRANCH   2   4
ENDBRANCH   1   2
BRANCH   1   6
ATOM      6  C2  UNK     1      -1.169  43.027 226.774  1.00  0.00     0.106 C 
BRANCH   6   7
ATOM      7  S1  UNK     1      -2.809  42.455 227.312  1.00  0.00    -0.180 SA
ATOM      8  H9  UNK     1      -3.016  43.184 228.369  1.00  0.00     0.101 HD
ENDBRANCH   6   7
ENDBRANCH   1   6
BRANCH   1   9
ATOM      9  N1  UNK     1       0.806  44.338 227.422  1.00  0.00    -0.346 N 
ATOM     10  C3  UNK     1       1.606  45.049 228.217  1.00  0.00     0.214 C 
ATOM     11  O3  UNK     1       2.439  44.701 228.900  1.00  0.00    -0.274 OA
ATOM     12  C5  UNK     1       1.034  46.276 228.887  1.00  0.00     0.117 C 
ATOM     13  H1  UNK     1       1.045  44.245 226.456  1.00  0.00     0.163 HD
ENDBRANCH   1   9
TORSDOF 5
ENDMDL
MODEL 8
REMARK VINA RESULT:      -4.1      9.842     10.573
REMARK  5 active torsions:
REMARK  status: ('A' for Active; 'I' for Inactive)
REMARK    1  A    between atoms: C1_1  and  C4_4 
REMARK    2  A    between atoms: C1_1  and  O1_6 
REMARK    3  A    between atoms: C2_2  and  C4_4 
REMARK    4  A    between atoms: C2_2  and  S1_10 
REMARK       I    between atoms: C3_3  and  N1_5 
REMARK    5  A    between atoms: C4_4  and  N1_5 
ROOT
ATOM      1  C4  UNK     1       2.304  38.610 237.668  1.00  0.00     0.191 C 
ENDROOT
BRANCH   1   2
ATOM      2  C1  UNK     1       1.161  39.576 237.794  1.00  0.00     0.164 C 
ATOM      3  O2  UNK     1       0.495  39.600 238.861  1.00  0.00    -0.648 OA
BRANCH   2   4
ATOM      4  O1  UNK     1       0.934  40.335 236.817  1.00  0.00    -0.775 OA
ATOM      5  H5  UNK     1       1.697  40.360 236.252  1.00  0.00     0.167 HD
ENDBRANCH   2   4
ENDBRANCH   1   2
BRANCH   1   6
ATOM      6  C2  UNK     1       3.459  39.060 238.564  1.00  0.00     0.106 C 
BRANCH   6   7
ATOM      7  S1  UNK     1       3.539  38.086 240.098  1.00  0.00    -0.180 SA
ATOM      8  H9  UNK     1       2.964  36.975 239.743  1.00  0.00     0.101 HD
ENDBRANCH   6   7
ENDBRANCH   1   6
BRANCH   1   9
ATOM      9  N1  UNK     1       2.754  38.415 236.300  1.00  0.00    -0.346 N 
ATOM     10  C3  UNK     1       1.972  37.874 235.366  1.00  0.00     0.214 C 
ATOM     11  O3  UNK     1       1.185  38.361 234.713  1.00  0.00    -0.274 OA
ATOM     12  C5  UNK     1       1.488  36.459 235.577  1.00  0.00     0.117 C 
ATOM     13  H1  UNK     1       3.681  38.695 236.050  1.00  0.00     0.163 HD
ENDBRANCH   1   9
TORSDOF 5
ENDMDL
MODEL 9
REMARK VINA RESULT:      -4.1     10.313     10.993
REMARK  5 active torsions:
REMARK  status: ('A' for Active; 'I' for Inactive)
REMARK    1  A    between atoms: C1_1  and  C4_4 
REMARK    2  A    between atoms: C1_1  and  O1_6 
REMARK    3  A    between atoms: C2_2  and  C4_4 
REMARK    4  A    between atoms: C2_2  and  S1_10 
REMARK       I    between atoms: C3_3  and  N1_5 
REMARK    5  A    between atoms: C4_4  and  N1_5 
ROOT
ATOM      1  C4  UNK     1       2.357  38.627 237.884  1.00  0.00     0.191 C 
ENDROOT
BRANCH   1   2
ATOM      2  C1  UNK     1       1.183  39.558 237.771  1.00  0.00     0.164 C 
ATOM      3  O2  UNK     1       0.432  39.717 238.767  1.00  0.00    -0.648 OA
BRANCH   2   4
ATOM      4  O1  UNK     1       1.016  40.150 236.674  1.00  0.00    -0.775 OA
ATOM      5  H5  UNK     1       0.298  39.744 236.201  1.00  0.00     0.167 HD
ENDBRANCH   2   4
ENDBRANCH   1   2
BRANCH   1   6
ATOM      6  C2  UNK     1       3.484  39.313 238.658  1.00  0.00     0.106 C 
BRANCH   6   7
ATOM      7  S1  UNK     1       4.223  38.202 239.893  1.00  0.00    -0.180 SA
ATOM      8  H9  UNK     1       3.828  38.739 241.010  1.00  0.00     0.101 HD
ENDBRANCH   6   7
ENDBRANCH   1   6
BRANCH   1   9
ATOM      9  N1  UNK     1       2.833  38.133 236.602  1.00  0.00    -0.346 N 
ATOM     10  C3  UNK     1       2.625  36.878 236.204  1.00  0.00     0.214 C 
ATOM     11  O3  UNK     1       1.721  36.423 235.697  1.00  0.00    -0.274 OA
ATOM     12  C5  UNK     1       3.214  35.762 237.034  1.00  0.00     0.117 C 
ATOM     13  H1  UNK     1       3.334  38.754 235.999  1.00  0.00     0.163 HD
ENDBRANCH   1   9
TORSDOF 5
ENDMDL
