REMARK  6 active torsions:
REMARK  status: ('A' for Active; 'I' for Inactive)
REMARK    1  A    between atoms: C1_1  and  C7_6 
REMARK    2  A    between atoms: C3_3  and  O1_8 
REMARK    3  A    between atoms: C4_4  and  O2_10 
REMARK    4  A    between atoms: C7_6  and  O3_12 
REMARK    5  A    between atoms: C7_6  and  C8_14 
REMARK    6  A    between atoms: C8_14  and  N1_15 
ROOT
HETATM    1  C1  ALE  1572     -51.307   5.812  23.208  1.00 20.00    -0.025 A 
HETATM    2  C2  ALE  1572     -50.821   4.508  23.141  1.00 20.00     0.049 A 
HETATM    3  C3  ALE  1572     -49.632   4.243  22.465  1.00 20.00     0.099 A 
HETATM    4  C4  ALE  1572     -48.923   5.287  21.859  1.00 20.00     0.098 A 
HETATM    5  C5  ALE  1572     -49.409   6.588  21.929  1.00 20.00     0.040 A 
HETATM    6  C6  ALE  1572     -50.597   6.847  22.601  1.00 20.00     0.012 A 
ENDROOT
BRANCH   1   7
HETATM    7  C7  ALE  1572     -52.619   6.131  23.948  1.00 20.00     0.176 C 
BRANCH   7   8
HETATM    8  O3  ALE  1572     -52.449   5.863  25.346  1.00 20.00    -0.389 OA
ATOM      9  H3  ALE  1572     -53.259   6.060  25.803  1.00  0.00     0.210 HD
ENDBRANCH   7   8
BRANCH   7  10
HETATM   10  C8  ALE  1572     -53.791   5.321  23.364  1.00 20.00     0.268 C 
BRANCH  10  11
HETATM   11  N1  ALE  1572     -54.744   4.961  24.423  1.00 20.00    -0.076 N 
HETATM   12  C9  ALE  1572     -54.781   3.500  24.596  1.00 20.00     0.267 C 
ATOM     13  H12 ALE  1572     -54.542   5.444  25.298  1.00  0.00     0.276 HD
ATOM     14  H11 ALE  1572     -55.672   5.348  24.249  1.00  0.00     0.276 HD
ENDBRANCH  10  11
ENDBRANCH   7  10
ENDBRANCH   1   7
BRANCH   3  15
HETATM   15  O1  ALE  1572     -49.177   2.960  22.411  1.00 20.00    -0.358 OA
ATOM     16  H1  ALE  1572     -48.366   2.779  21.950  1.00  0.00     0.217 HD
ENDBRANCH   3  15
BRANCH   4  17
HETATM   17  O2  ALE  1572     -47.759   5.057  21.190  1.00 20.00    -0.358 OA
ATOM     18  H2  ALE  1572     -47.278   5.765  20.779  1.00  0.00     0.217 HD
ENDBRANCH   4  17
TORSDOF 6
