REMARK  7 active torsions:
REMARK  status: ('A' for Active; 'I' for Inactive)
REMARK    1  A    between atoms: O1_1  and  C6_11 
REMARK    2  A    between atoms: O2_2  and  C7_12 
REMARK    3  A    between atoms: O3_3  and  C9_14 
REMARK    4  A    between atoms: N1_5  and  C2_7 
REMARK    5  A    between atoms: C1_6  and  C2_7 
REMARK    6  A    between atoms: C1_6  and  C3_8 
REMARK    7  A    between atoms: C2_7  and  C7_12 
ROOT
ATOM      1  C3  UNK     1     -50.919   5.862  23.492  1.00  0.00    -0.053 A 
ATOM      2  C4  UNK     1     -50.315   4.617  23.446  1.00  0.00     0.046 A 
ATOM      3  C5  UNK     1     -50.519   6.891  22.657  1.00  0.00     0.010 A 
ATOM      4  C6  UNK     1     -49.279   4.395  22.540  1.00  0.00     0.099 A 
ATOM      5  C8  UNK     1     -49.482   6.669  21.751  1.00  0.00     0.040 A 
ATOM      6  C9  UNK     1     -48.862   5.421  21.692  1.00  0.00     0.098 A 
ENDROOT
BRANCH   1   7
ATOM      7  C1  UNK     1     -52.042   6.103  24.475  1.00  0.00     0.085 C 
BRANCH   7   8
ATOM      8  C2  UNK     1     -53.426   5.776  23.892  1.00  0.00     0.318 C 
BRANCH   8   9
ATOM      9  N1  UNK     1     -54.462   6.458  24.667  1.00  0.00     0.093 N 
ATOM     10  H7  UNK     1     -54.320   7.465  24.613  1.00  0.00     0.314 HD
ATOM     11  H8  UNK     1     -54.370   6.217  25.653  1.00  0.00     0.314 HD
ENDBRANCH   8   9
BRANCH   8  12
ATOM     12  C7  UNK     1     -53.740   4.291  23.960  1.00  0.00     0.174 C 
ATOM     13  O4  UNK     1     -54.269   3.731  24.911  1.00  0.00    -0.648 OA
BRANCH  12  14
ATOM     14  O2  UNK     1     -53.396   3.638  22.820  1.00  0.00    -0.775 OA
ATOM     15  H10 UNK     1     -53.612   2.683  22.866  1.00  0.00     0.167 HD
ENDBRANCH  12  14
ENDBRANCH   8  12
ENDBRANCH   7   8
ENDBRANCH   1   7
BRANCH   4  16
ATOM     16  O1  UNK     1     -48.681   3.172  22.491  1.00  0.00    -0.358 OA
ATOM     17  H9  UNK     1     -47.988   3.196  21.809  1.00  0.00     0.217 HD
ENDBRANCH   4  16
BRANCH   6  18
ATOM     18  O3  UNK     1     -47.852   5.216  20.801  1.00  0.00    -0.358 OA
ATOM     19  H11 UNK     1     -47.701   6.035  20.300  1.00  0.00     0.217 HD
ENDBRANCH   6  18
TORSDOF 7
