MODEL 1
REMARK VINA RESULT:      -6.8      0.000      0.000
REMARK  9 active torsions:
REMARK  status: ('A' for Active; 'I' for Inactive)
REMARK    1  A    between atoms: C2_3  and  C3_4 
REMARK    2  A    between atoms: C3_4  and  O1_5 
REMARK    3  A    between atoms: C4_7  and  C5_8 
REMARK    4  A    between atoms: C5_8  and  C6_9 
REMARK    5  A    between atoms: C6_9  and  C7_10 
REMARK    6  A    between atoms: N2_12  and  C9_13 
REMARK    7  A    between atoms: C9_13  and  C10_14 
REMARK    8  A    between atoms: C15_19  and  C16_20 
REMARK    9  A    between atoms: C21_25  and  C22_26 
ROOT
ATOM      1  C10 UNK     1       0.063  37.404 232.144  1.00  0.00    -0.040 C 
ATOM      2  C11 UNK     1      -0.996  38.301 232.790  1.00  0.00     0.010 C 
ATOM      3  C12 UNK     1      -1.825  39.196 231.851  1.00  0.00     0.013 C 
ATOM      4  C13 UNK     1       0.137  37.096 230.682  1.00  0.00     0.010 C 
ATOM      5  C14 UNK     1      -0.653  37.977 229.786  1.00  0.00     0.013 C 
ATOM      6  C15 UNK     1      -1.501  39.100 230.341  1.00  0.00    -0.025 C 
ENDROOT
BRANCH   1   7
ATOM      7  C9  UNK     1       0.793  36.305 232.901  1.00  0.00     0.169 C 
BRANCH   7   8
ATOM      8  N2  UNK     1       0.071  36.242 234.106  1.00  0.00    -0.330 N 
ATOM      9  C2  UNK     1       0.654  36.821 235.268  1.00  0.00     0.077 C 
ATOM     10  C1  UNK     1      -0.439  36.494 236.341  1.00  0.00     0.152 C 
ATOM     11 Cl1  UNK     1      -0.551  37.200 237.951  1.00  0.00    -0.060 Cl
ATOM     12  N1  UNK     1      -1.530  35.748 235.747  1.00  0.00    -0.221 NA
ATOM     13  C4  UNK     1      -1.076  35.388 234.436  1.00  0.00     0.108 C 
BRANCH   9  14
ATOM     14  C3  UNK     1       1.763  37.870 235.317  1.00  0.00     0.224 C 
BRANCH  14  15
ATOM     15  O1  UNK     1       1.303  39.180 235.627  1.00  0.00    -0.395 OA
ATOM     16  H3  UNK     1       2.042  39.773 235.669  1.00  0.00     0.209 HD
ENDBRANCH  14  15
ENDBRANCH   9  14
BRANCH  13  17
ATOM     17  C5  UNK     1      -1.983  34.590 233.512  1.00  0.00     0.079 C 
BRANCH  17  18
ATOM     18  C6  UNK     1      -3.232  35.396 233.121  1.00  0.00     0.007 C 
BRANCH  18  19
ATOM     19  C7  UNK     1      -3.384  35.712 231.630  1.00  0.00    -0.004 C 
ATOM     20  C8  UNK     1      -4.541  36.637 231.359  1.00  0.00     0.005 C 
ENDBRANCH  18  19
ENDBRANCH  17  18
ENDBRANCH  13  17
ENDBRANCH   7   8
ENDBRANCH   1   7
BRANCH   6  21
ATOM     21  C16 UNK     1      -2.367  39.816 229.303  1.00  0.00    -0.012 C 
ATOM     22  C17 UNK     1      -3.698  39.186 229.053  1.00  0.00     0.013 C 
ATOM     23  C18 UNK     1      -4.651  39.908 228.144  1.00  0.00     0.001 C 
ATOM     24  C19 UNK     1      -4.346  41.311 227.676  1.00  0.00     0.001 C 
ATOM     25  C20 UNK     1      -3.060  42.014 228.053  1.00  0.00     0.016 C 
ATOM     26  C21 UNK     1      -2.190  41.302 229.070  1.00  0.00     0.026 C 
BRANCH  26  27
ATOM     27  C22 UNK     1      -0.829  41.924 229.346  1.00  0.00     0.205 A 
ATOM     28  N3  UNK     1      -0.641  43.103 230.173  1.00  0.00    -0.108 NA
ATOM     29  N6  UNK     1       0.639  43.326 229.996  1.00  0.00    -0.049 NA
ATOM     30  N5  UNK     1       1.168  42.465 229.101  1.00  0.00    -0.176 N 
ATOM     31  N4  UNK     1       0.345  41.575 228.574  1.00  0.00    -0.133 NA
ATOM     32  H23 UNK     1       2.135  42.499 228.849  1.00  0.00     0.214 HD
ENDBRANCH  26  27
ENDBRANCH   6  21
TORSDOF 9
ENDMDL
MODEL 2
REMARK VINA RESULT:      -6.3      6.481      8.575
REMARK  9 active torsions:
REMARK  status: ('A' for Active; 'I' for Inactive)
REMARK    1  A    between atoms: C2_3  and  C3_4 
REMARK    2  A    between atoms: C3_4  and  O1_5 
REMARK    3  A    between atoms: C4_7  and  C5_8 
REMARK    4  A    between atoms: C5_8  and  C6_9 
REMARK    5  A    between atoms: C6_9  and  C7_10 
REMARK    6  A    between atoms: N2_12  and  C9_13 
REMARK    7  A    between atoms: C9_13  and  C10_14 
REMARK    8  A    between atoms: C15_19  and  C16_20 
REMARK    9  A    between atoms: C21_25  and  C22_26 
ROOT
ATOM      1  C10 UNK     1      -0.060  35.928 236.664  1.00  0.00    -0.040 C 
ATOM      2  C11 UNK     1       0.795  36.245 235.434  1.00  0.00     0.010 C 
ATOM      3  C12 UNK     1       0.901  35.153 234.353  1.00  0.00     0.013 C 
ATOM      4  C13 UNK     1      -1.036  34.798 236.751  1.00  0.00     0.010 C 
ATOM      5  C14 UNK     1      -0.911  33.743 235.714  1.00  0.00     0.013 C 
ATOM      6  C15 UNK     1       0.132  33.838 234.622  1.00  0.00    -0.025 C 
ENDROOT
BRANCH   1   7
ATOM      7  C9  UNK     1      -0.448  36.975 237.695  1.00  0.00     0.169 C 
BRANCH   7   8
ATOM      8  N2  UNK     1       0.745  37.136 238.423  1.00  0.00    -0.330 N 
ATOM      9  C2  UNK     1       1.566  38.258 238.123  1.00  0.00     0.077 C 
ATOM     10  C1  UNK     1       2.761  38.022 239.108  1.00  0.00     0.152 C 
ATOM     11 Cl1  UNK     1       4.001  39.199 239.531  1.00  0.00    -0.060 Cl
ATOM     12  N1  UNK     1       2.564  36.801 239.865  1.00  0.00    -0.221 NA
ATOM     13  C4  UNK     1       1.448  36.146 239.247  1.00  0.00     0.108 C 
BRANCH   9  14
ATOM     14  C3  UNK     1       1.145  39.547 237.418  1.00  0.00     0.224 C 
BRANCH  14  15
ATOM     15  O1  UNK     1       1.315  39.512 236.006  1.00  0.00    -0.395 OA
ATOM     16  H3  UNK     1       1.703  40.328 235.714  1.00  0.00     0.209 HD
ENDBRANCH  14  15
ENDBRANCH   9  14
BRANCH  13  17
ATOM     17  C5  UNK     1       0.952  34.818 239.794  1.00  0.00     0.079 C 
BRANCH  17  18
ATOM     18  C6  UNK     1       1.916  33.673 239.446  1.00  0.00     0.007 C 
BRANCH  18  19
ATOM     19  C7  UNK     1       2.131  33.410 237.952  1.00  0.00    -0.004 C 
ATOM     20  C8  UNK     1       3.255  34.237 237.384  1.00  0.00     0.005 C 
ENDBRANCH  18  19
ENDBRANCH  17  18
ENDBRANCH  13  17
ENDBRANCH   7   8
ENDBRANCH   1   7
BRANCH   6  21
ATOM     21  C16 UNK     1       0.029  32.752 233.549  1.00  0.00    -0.012 C 
ATOM     22  C17 UNK     1      -0.787  33.123 232.355  1.00  0.00     0.013 C 
ATOM     23  C18 UNK     1      -0.823  32.155 231.207  1.00  0.00     0.001 C 
ATOM     24  C19 UNK     1       0.099  30.960 231.187  1.00  0.00     0.001 C 
ATOM     25  C20 UNK     1       1.042  30.662 232.332  1.00  0.00     0.016 C 
ATOM     26  C21 UNK     1       1.136  31.728 233.407  1.00  0.00     0.026 C 
BRANCH  26  27
ATOM     27  C22 UNK     1       1.965  31.377 234.634  1.00  0.00     0.205 A 
ATOM     28  N3  UNK     1       3.356  31.761 234.796  1.00  0.00    -0.108 NA
ATOM     29  N6  UNK     1       3.658  31.129 235.904  1.00  0.00    -0.049 NA
ATOM     30  N5  UNK     1       2.628  30.368 236.332  1.00  0.00    -0.176 N 
ATOM     31  N4  UNK     1       1.529  30.387 235.595  1.00  0.00    -0.133 NA
ATOM     32  H23 UNK     1       2.693  29.818 237.164  1.00  0.00     0.214 HD
ENDBRANCH  26  27
ENDBRANCH   6  21
TORSDOF 9
ENDMDL
MODEL 3
REMARK VINA RESULT:      -6.2      3.352      5.522
REMARK  9 active torsions:
REMARK  status: ('A' for Active; 'I' for Inactive)
REMARK    1  A    between atoms: C2_3  and  C3_4 
REMARK    2  A    between atoms: C3_4  and  O1_5 
REMARK    3  A    between atoms: C4_7  and  C5_8 
REMARK    4  A    between atoms: C5_8  and  C6_9 
REMARK    5  A    between atoms: C6_9  and  C7_10 
REMARK    6  A    between atoms: N2_12  and  C9_13 
REMARK    7  A    between atoms: C9_13  and  C10_14 
REMARK    8  A    between atoms: C15_19  and  C16_20 
REMARK    9  A    between atoms: C21_25  and  C22_26 
ROOT
ATOM      1  C10 UNK     1       0.543  36.191 235.033  1.00  0.00    -0.040 C 
ATOM      2  C11 UNK     1       1.253  37.317 234.276  1.00  0.00     0.010 C 
ATOM      3  C12 UNK     1       1.210  37.264 232.738  1.00  0.00     0.013 C 
ATOM      4  C13 UNK     1      -0.438  35.243 234.420  1.00  0.00     0.010 C 
ATOM      5  C14 UNK     1      -0.457  35.189 232.936  1.00  0.00     0.013 C 
ATOM      6  C15 UNK     1       0.452  36.071 232.108  1.00  0.00    -0.025 C 
ENDROOT
BRANCH   1   7
ATOM      7  C9  UNK     1       0.299  36.226 236.533  1.00  0.00     0.169 C 
BRANCH   7   8
ATOM      8  N2  UNK     1       1.495  35.687 237.043  1.00  0.00    -0.330 N 
ATOM      9  C2  UNK     1       1.459  34.372 237.584  1.00  0.00     0.077 C 
ATOM     10  C1  UNK     1       2.945  34.205 238.052  1.00  0.00     0.152 C 
ATOM     11 Cl1  UNK     1       3.720  32.692 238.515  1.00  0.00    -0.060 Cl
ATOM     12  N1  UNK     1       3.703  35.410 237.781  1.00  0.00    -0.221 NA
ATOM     13  C4  UNK     1       2.733  36.392 237.395  1.00  0.00     0.108 C 
BRANCH   9  14
ATOM     14  C3  UNK     1       0.411  33.293 237.318  1.00  0.00     0.224 C 
BRANCH  14  15
ATOM     15  O1  UNK     1      -0.670  33.301 238.243  1.00  0.00    -0.395 OA
ATOM     16  H3  UNK     1      -1.315  32.655 237.981  1.00  0.00     0.209 HD
ENDBRANCH  14  15
ENDBRANCH   9  14
BRANCH  13  17
ATOM     17  C5  UNK     1       3.182  37.797 237.026  1.00  0.00     0.079 C 
BRANCH  17  18
ATOM     18  C6  UNK     1       2.592  38.843 237.986  1.00  0.00     0.007 C 
BRANCH  18  19
ATOM     19  C7  UNK     1       1.393  39.636 237.457  1.00  0.00    -0.004 C 
ATOM     20  C8  UNK     1       0.245  39.652 238.432  1.00  0.00     0.005 C 
ENDBRANCH  18  19
ENDBRANCH  17  18
ENDBRANCH  13  17
ENDBRANCH   7   8
ENDBRANCH   1   7
BRANCH   6  21
ATOM     21  C16 UNK     1       0.202  36.004 230.601  1.00  0.00    -0.012 C 
ATOM     22  C17 UNK     1       0.741  34.784 229.929  1.00  0.00     0.013 C 
ATOM     23  C18 UNK     1       0.419  34.589 228.475  1.00  0.00     0.001 C 
ATOM     24  C19 UNK     1      -0.581  35.488 227.787  1.00  0.00     0.001 C 
ATOM     25  C20 UNK     1      -1.246  36.639 228.510  1.00  0.00     0.016 C 
ATOM     26  C21 UNK     1      -0.990  36.720 230.002  1.00  0.00     0.026 C 
BRANCH  26  27
ATOM     27  C22 UNK     1      -1.531  37.953 230.712  1.00  0.00     0.205 A 
ATOM     28  N3  UNK     1      -2.622  37.911 231.669  1.00  0.00    -0.108 NA
ATOM     29  N6  UNK     1      -2.809  39.190 231.886  1.00  0.00    -0.049 NA
ATOM     30  N5  UNK     1      -2.011  39.943 231.099  1.00  0.00    -0.176 N 
ATOM     31  N4  UNK     1      -1.205  39.294 230.275  1.00  0.00    -0.133 NA
ATOM     32  H23 UNK     1      -2.029  40.942 231.136  1.00  0.00     0.214 HD
ENDBRANCH  26  27
ENDBRANCH   6  21
TORSDOF 9
ENDMDL
MODEL 4
REMARK VINA RESULT:      -6.2      3.063      5.109
REMARK  9 active torsions:
REMARK  status: ('A' for Active; 'I' for Inactive)
REMARK    1  A    between atoms: C2_3  and  C3_4 
REMARK    2  A    between atoms: C3_4  and  O1_5 
REMARK    3  A    between atoms: C4_7  and  C5_8 
REMARK    4  A    between atoms: C5_8  and  C6_9 
REMARK    5  A    between atoms: C6_9  and  C7_10 
REMARK    6  A    between atoms: N2_12  and  C9_13 
REMARK    7  A    between atoms: C9_13  and  C10_14 
REMARK    8  A    between atoms: C15_19  and  C16_20 
REMARK    9  A    between atoms: C21_25  and  C22_26 
ROOT
ATOM      1  C10 UNK     1       0.316  36.218 235.207  1.00  0.00    -0.040 C 
ATOM      2  C11 UNK     1       1.148  37.274 234.476  1.00  0.00     0.010 C 
ATOM      3  C12 UNK     1       1.179  37.201 232.937  1.00  0.00     0.013 C 
ATOM      4  C13 UNK     1      -0.701  35.337 234.555  1.00  0.00     0.010 C 
ATOM      5  C14 UNK     1      -0.649  35.261 233.073  1.00  0.00     0.013 C 
ATOM      6  C15 UNK     1       0.366  36.059 232.284  1.00  0.00    -0.025 C 
ENDROOT
BRANCH   1   7
ATOM      7  C9  UNK     1      -0.000  36.295 236.692  1.00  0.00     0.169 C 
BRANCH   7   8
ATOM      8  N2  UNK     1       1.282  36.327 237.271  1.00  0.00    -0.330 N 
ATOM      9  C2  UNK     1       1.830  37.594 237.614  1.00  0.00     0.077 C 
ATOM     10  C1  UNK     1       3.233  37.168 238.168  1.00  0.00     0.152 C 
ATOM     11 Cl1  UNK     1       4.333  38.189 239.090  1.00  0.00    -0.060 Cl
ATOM     12  N1  UNK     1       3.400  35.732 238.082  1.00  0.00    -0.221 NA
ATOM     13  C4  UNK     1       2.294  35.266 237.297  1.00  0.00     0.108 C 
BRANCH   9  14
ATOM     14  C3  UNK     1       1.068  38.900 237.834  1.00  0.00     0.224 C 
BRANCH  14  15
ATOM     15  O1  UNK     1       1.308  39.882 236.834  1.00  0.00    -0.395 OA
ATOM     16  H3  UNK     1       1.581  40.692 237.245  1.00  0.00     0.209 HD
ENDBRANCH  14  15
ENDBRANCH   9  14
BRANCH  13  17
ATOM     17  C5  UNK     1       2.145  33.781 237.005  1.00  0.00     0.079 C 
BRANCH  17  18
ATOM     18  C6  UNK     1       3.316  33.255 236.160  1.00  0.00     0.007 C 
BRANCH  18  19
ATOM     19  C7  UNK     1       2.969  32.168 235.138  1.00  0.00    -0.004 C 
ATOM     20  C8  UNK     1       1.632  32.405 234.488  1.00  0.00     0.005 C 
ENDBRANCH  18  19
ENDBRANCH  17  18
ENDBRANCH  13  17
ENDBRANCH   7   8
ENDBRANCH   1   7
BRANCH   6  21
ATOM     21  C16 UNK     1       0.189  35.986 230.766  1.00  0.00    -0.012 C 
ATOM     22  C17 UNK     1       0.755  34.762 230.126  1.00  0.00     0.013 C 
ATOM     23  C18 UNK     1       0.504  34.563 228.658  1.00  0.00     0.001 C 
ATOM     24  C19 UNK     1      -0.458  35.462 227.920  1.00  0.00     0.001 C 
ATOM     25  C20 UNK     1      -1.154  36.618 228.605  1.00  0.00     0.016 C 
ATOM     26  C21 UNK     1      -0.971  36.704 230.108  1.00  0.00     0.026 C 
BRANCH  26  27
ATOM     27  C22 UNK     1      -1.541  37.941 230.786  1.00  0.00     0.205 A 
ATOM     28  N3  UNK     1      -2.691  37.909 231.673  1.00  0.00    -0.108 NA
ATOM     29  N6  UNK     1      -2.876  39.190 231.881  1.00  0.00    -0.049 NA
ATOM     30  N5  UNK     1      -2.022  39.936 231.148  1.00  0.00    -0.176 N 
ATOM     31  N4  UNK     1      -1.173  39.279 230.375  1.00  0.00    -0.133 NA
ATOM     32  H23 UNK     1      -2.031  40.935 231.188  1.00  0.00     0.214 HD
ENDBRANCH  26  27
ENDBRANCH   6  21
TORSDOF 9
ENDMDL
MODEL 5
REMARK VINA RESULT:      -6.0      3.112      4.367
REMARK  9 active torsions:
REMARK  status: ('A' for Active; 'I' for Inactive)
REMARK    1  A    between atoms: C2_3  and  C3_4 
REMARK    2  A    between atoms: C3_4  and  O1_5 
REMARK    3  A    between atoms: C4_7  and  C5_8 
REMARK    4  A    between atoms: C5_8  and  C6_9 
REMARK    5  A    between atoms: C6_9  and  C7_10 
REMARK    6  A    between atoms: N2_12  and  C9_13 
REMARK    7  A    between atoms: C9_13  and  C10_14 
REMARK    8  A    between atoms: C15_19  and  C16_20 
REMARK    9  A    between atoms: C21_25  and  C22_26 
ROOT
ATOM      1  C10 UNK     1       0.768  35.331 234.603  1.00  0.00    -0.040 C 
ATOM      2  C11 UNK     1       0.278  34.073 233.881  1.00  0.00     0.010 C 
ATOM      3  C12 UNK     1      -0.135  34.228 232.405  1.00  0.00     0.013 C 
ATOM      4  C13 UNK     1       1.172  36.599 233.921  1.00  0.00     0.010 C 
ATOM      5  C14 UNK     1       0.752  36.743 232.505  1.00  0.00     0.013 C 
ATOM      6  C15 UNK     1      -0.015  35.647 231.799  1.00  0.00    -0.025 C 
ENDROOT
BRANCH   1   7
ATOM      7  C9  UNK     1       1.423  35.296 235.975  1.00  0.00     0.169 C 
BRANCH   7   8
ATOM      8  N2  UNK     1       0.642  36.211 236.703  1.00  0.00    -0.330 N 
ATOM      9  C2  UNK     1       1.292  37.339 237.277  1.00  0.00     0.077 C 
ATOM     10  C1  UNK     1       0.089  38.036 238.001  1.00  0.00     0.152 C 
ATOM     11 Cl1  UNK     1       0.081  39.676 238.646  1.00  0.00    -0.060 Cl
ATOM     12  N1  UNK     1      -1.127  37.270 237.822  1.00  0.00    -0.221 NA
ATOM     13  C4  UNK     1      -0.712  36.028 237.238  1.00  0.00     0.108 C 
BRANCH   9  14
ATOM     14  C3  UNK     1       2.641  37.931 236.872  1.00  0.00     0.224 C 
BRANCH  14  15
ATOM     15  O1  UNK     1       2.543  39.011 235.953  1.00  0.00    -0.395 OA
ATOM     16  H3  UNK     1       2.824  39.813 236.376  1.00  0.00     0.209 HD
ENDBRANCH  14  15
ENDBRANCH   9  14
BRANCH  13  17
ATOM     17  C5  UNK     1      -1.747  34.965 236.903  1.00  0.00     0.079 C 
BRANCH  17  18
ATOM     18  C6  UNK     1      -3.170  35.546 236.917  1.00  0.00     0.007 C 
BRANCH  18  19
ATOM     19  C7  UNK     1      -3.878  35.616 235.560  1.00  0.00    -0.004 C 
ATOM     20  C8  UNK     1      -2.927  35.940 234.438  1.00  0.00     0.005 C 
ENDBRANCH  18  19
ENDBRANCH  17  18
ENDBRANCH  13  17
ENDBRANCH   7   8
ENDBRANCH   1   7
BRANCH   6  21
ATOM     21  C16 UNK     1      -0.239  35.886 230.305  1.00  0.00    -0.012 C 
ATOM     22  C17 UNK     1       0.480  34.939 229.403  1.00  0.00     0.013 C 
ATOM     23  C18 UNK     1       0.204  35.035 227.929  1.00  0.00     0.001 C 
ATOM     24  C19 UNK     1      -0.912  35.913 227.417  1.00  0.00     0.001 C 
ATOM     25  C20 UNK     1      -1.747  36.764 228.349  1.00  0.00     0.016 C 
ATOM     26  C21 UNK     1      -1.519  36.542 229.831  1.00  0.00     0.026 C 
BRANCH  26  27
ATOM     27  C22 UNK     1      -2.243  37.492 230.774  1.00  0.00     0.205 A 
ATOM     28  N3  UNK     1      -3.612  37.293 231.216  1.00  0.00    -0.108 NA
ATOM     29  N6  UNK     1      -3.823  38.407 231.874  1.00  0.00    -0.049 NA
ATOM     30  N5  UNK     1      -2.766  39.241 231.779  1.00  0.00    -0.176 N 
ATOM     31  N4  UNK     1      -1.734  38.815 231.069  1.00  0.00    -0.133 NA
ATOM     32  H23 UNK     1      -2.763  40.137 232.223  1.00  0.00     0.214 HD
ENDBRANCH  26  27
ENDBRANCH   6  21
TORSDOF 9
ENDMDL
MODEL 6
REMARK VINA RESULT:      -5.8      3.981      7.551
REMARK  9 active torsions:
REMARK  status: ('A' for Active; 'I' for Inactive)
REMARK    1  A    between atoms: C2_3  and  C3_4 
REMARK    2  A    between atoms: C3_4  and  O1_5 
REMARK    3  A    between atoms: C4_7  and  C5_8 
REMARK    4  A    between atoms: C5_8  and  C6_9 
REMARK    5  A    between atoms: C6_9  and  C7_10 
REMARK    6  A    between atoms: N2_12  and  C9_13 
REMARK    7  A    between atoms: C9_13  and  C10_14 
REMARK    8  A    between atoms: C15_19  and  C16_20 
REMARK    9  A    between atoms: C21_25  and  C22_26 
ROOT
ATOM      1  C10 UNK     1      -2.373  37.996 233.302  1.00  0.00    -0.040 C 
ATOM      2  C11 UNK     1      -1.038  37.842 232.569  1.00  0.00     0.010 C 
ATOM      3  C12 UNK     1       0.115  37.176 233.344  1.00  0.00     0.013 C 
ATOM      4  C13 UNK     1      -2.736  37.282 234.565  1.00  0.00     0.010 C 
ATOM      5  C14 UNK     1      -1.614  36.660 235.311  1.00  0.00     0.013 C 
ATOM      6  C15 UNK     1      -0.194  36.730 234.793  1.00  0.00    -0.025 C 
ENDROOT
BRANCH   1   7
ATOM      7  C9  UNK     1      -3.658  38.416 232.605  1.00  0.00     0.169 C 
BRANCH   7   8
ATOM      8  N2  UNK     1      -3.620  37.653 231.424  1.00  0.00    -0.330 N 
ATOM      9  C2  UNK     1      -3.630  38.343 230.180  1.00  0.00     0.077 C 
ATOM     10  C1  UNK     1      -3.619  37.141 229.175  1.00  0.00     0.152 C 
ATOM     11 Cl1  UNK     1      -3.286  37.240 227.448  1.00  0.00    -0.060 Cl
ATOM     12  N1  UNK     1      -3.631  35.880 229.889  1.00  0.00    -0.221 NA
ATOM     13  C4  UNK     1      -3.887  36.220 231.258  1.00  0.00     0.108 C 
BRANCH   9  14
ATOM     14  C3  UNK     1      -3.255  39.804 229.933  1.00  0.00     0.224 C 
BRANCH  14  15
ATOM     15  O1  UNK     1      -4.356  40.701 230.011  1.00  0.00    -0.395 OA
ATOM     16  H3  UNK     1      -4.228  41.413 229.396  1.00  0.00     0.209 HD
ENDBRANCH  14  15
ENDBRANCH   9  14
BRANCH  13  17
ATOM     17  C5  UNK     1      -3.962  35.124 232.309  1.00  0.00     0.079 C 
BRANCH  17  18
ATOM     18  C6  UNK     1      -3.015  33.960 231.973  1.00  0.00     0.007 C 
BRANCH  18  19
ATOM     19  C7  UNK     1      -1.626  34.020 232.617  1.00  0.00    -0.004 C 
ATOM     20  C8  UNK     1      -0.525  34.077 231.591  1.00  0.00     0.005 C 
ENDBRANCH  18  19
ENDBRANCH  17  18
ENDBRANCH  13  17
ENDBRANCH   7   8
ENDBRANCH   1   7
BRANCH   6  21
ATOM     21  C16 UNK     1       0.818  35.913 235.598  1.00  0.00    -0.012 C 
ATOM     22  C17 UNK     1       1.153  34.579 235.016  1.00  0.00     0.013 C 
ATOM     23  C18 UNK     1       2.235  33.779 235.683  1.00  0.00     0.001 C 
ATOM     24  C19 UNK     1       3.084  34.399 236.767  1.00  0.00     0.001 C 
ATOM     25  C20 UNK     1       2.845  35.810 237.257  1.00  0.00     0.016 C 
ATOM     26  C21 UNK     1       1.831  36.620 236.473  1.00  0.00     0.026 C 
BRANCH  26  27
ATOM     27  C22 UNK     1       1.474  37.986 237.042  1.00  0.00     0.205 A 
ATOM     28  N3  UNK     1       0.705  38.168 238.261  1.00  0.00    -0.108 NA
ATOM     29  N6  UNK     1       0.543  39.469 238.257  1.00  0.00    -0.049 NA
ATOM     30  N5  UNK     1       1.055  40.024 237.138  1.00  0.00    -0.176 N 
ATOM     31  N4  UNK     1       1.613  39.200 236.267  1.00  0.00    -0.133 NA
ATOM     32  H23 UNK     1       1.013  41.010 236.975  1.00  0.00     0.214 HD
ENDBRANCH  26  27
ENDBRANCH   6  21
TORSDOF 9
ENDMDL
MODEL 7
REMARK VINA RESULT:      -5.8      3.763      7.581
REMARK  9 active torsions:
REMARK  status: ('A' for Active; 'I' for Inactive)
REMARK    1  A    between atoms: C2_3  and  C3_4 
REMARK    2  A    between atoms: C3_4  and  O1_5 
REMARK    3  A    between atoms: C4_7  and  C5_8 
REMARK    4  A    between atoms: C5_8  and  C6_9 
REMARK    5  A    between atoms: C6_9  and  C7_10 
REMARK    6  A    between atoms: N2_12  and  C9_13 
REMARK    7  A    between atoms: C9_13  and  C10_14 
REMARK    8  A    between atoms: C15_19  and  C16_20 
REMARK    9  A    between atoms: C21_25  and  C22_26 
ROOT
ATOM      1  C10 UNK     1      -0.982  37.553 231.028  1.00  0.00    -0.040 C 
ATOM      2  C11 UNK     1      -1.958  37.306 232.181  1.00  0.00     0.010 C 
ATOM      3  C12 UNK     1      -1.486  36.373 233.313  1.00  0.00     0.013 C 
ATOM      4  C13 UNK     1       0.478  37.227 231.066  1.00  0.00     0.010 C 
ATOM      5  C14 UNK     1       0.917  36.313 232.150  1.00  0.00     0.013 C 
ATOM      6  C15 UNK     1      -0.066  35.775 233.167  1.00  0.00    -0.025 C 
ENDROOT
BRANCH   1   7
ATOM      7  C9  UNK     1      -1.206  38.619 229.967  1.00  0.00     0.169 C 
BRANCH   7   8
ATOM      8  N2  UNK     1      -2.261  38.074 229.214  1.00  0.00    -0.330 N 
ATOM      9  C2  UNK     1      -3.572  38.583 229.432  1.00  0.00     0.077 C 
ATOM     10  C1  UNK     1      -4.403  37.692 228.446  1.00  0.00     0.152 C 
ATOM     11 Cl1  UNK     1      -6.062  37.988 227.934  1.00  0.00    -0.060 Cl
ATOM     12  N1  UNK     1      -3.542  36.743 227.769  1.00  0.00    -0.221 NA
ATOM     13  C4  UNK     1      -2.279  36.827 228.442  1.00  0.00     0.108 C 
BRANCH   9  14
ATOM     14  C3  UNK     1      -3.948  39.923 230.063  1.00  0.00     0.224 C 
BRANCH  14  15
ATOM     15  O1  UNK     1      -4.606  40.814 229.171  1.00  0.00    -0.395 OA
ATOM     16  H3  UNK     1      -4.176  41.660 229.195  1.00  0.00     0.209 HD
ENDBRANCH  14  15
ENDBRANCH   9  14
BRANCH  13  17
ATOM     17  C5  UNK     1      -1.118  35.958 227.984  1.00  0.00     0.079 C 
BRANCH  17  18
ATOM     18  C6  UNK     1      -1.296  34.500 228.438  1.00  0.00     0.007 C 
BRANCH  18  19
ATOM     19  C7  UNK     1      -0.241  33.970 229.414  1.00  0.00    -0.004 C 
ATOM     20  C8  UNK     1      -0.860  33.337 230.632  1.00  0.00     0.005 C 
ENDBRANCH  18  19
ENDBRANCH  17  18
ENDBRANCH  13  17
ENDBRANCH   7   8
ENDBRANCH   1   7
BRANCH   6  21
ATOM     21  C16 UNK     1       0.570  34.971 234.302  1.00  0.00    -0.012 C 
ATOM     22  C17 UNK     1       0.838  33.537 233.984  1.00  0.00     0.013 C 
ATOM     23  C18 UNK     1       1.579  32.722 235.005  1.00  0.00     0.001 C 
ATOM     24  C19 UNK     1       2.205  33.390 236.206  1.00  0.00     0.001 C 
ATOM     25  C20 UNK     1       2.063  34.876 236.455  1.00  0.00     0.016 C 
ATOM     26  C21 UNK     1       1.419  35.676 235.340  1.00  0.00     0.026 C 
BRANCH  26  27
ATOM     27  C22 UNK     1       1.138  37.142 235.637  1.00  0.00     0.205 A 
ATOM     28  N3  UNK     1       2.090  38.208 235.379  1.00  0.00    -0.108 NA
ATOM     29  N6  UNK     1       1.467  39.229 235.915  1.00  0.00    -0.049 NA
ATOM     30  N5  UNK     1       0.321  38.844 236.517  1.00  0.00    -0.176 N 
ATOM     31  N4  UNK     1       0.027  37.555 236.468  1.00  0.00    -0.133 NA
ATOM     32  H23 UNK     1      -0.275  39.501 236.977  1.00  0.00     0.214 HD
ENDBRANCH  26  27
ENDBRANCH   6  21
TORSDOF 9
ENDMDL
MODEL 8
REMARK VINA RESULT:      -5.6      3.476      7.960
REMARK  9 active torsions:
REMARK  status: ('A' for Active; 'I' for Inactive)
REMARK    1  A    between atoms: C2_3  and  C3_4 
REMARK    2  A    between atoms: C3_4  and  O1_5 
REMARK    3  A    between atoms: C4_7  and  C5_8 
REMARK    4  A    between atoms: C5_8  and  C6_9 
REMARK    5  A    between atoms: C6_9  and  C7_10 
REMARK    6  A    between atoms: N2_12  and  C9_13 
REMARK    7  A    between atoms: C9_13  and  C10_14 
REMARK    8  A    between atoms: C15_19  and  C16_20 
REMARK    9  A    between atoms: C21_25  and  C22_26 
ROOT
ATOM      1  C10 UNK     1      -1.062  36.208 232.716  1.00  0.00    -0.040 C 
ATOM      2  C11 UNK     1       0.346  36.807 232.687  1.00  0.00     0.010 C 
ATOM      3  C12 UNK     1       1.234  36.575 233.924  1.00  0.00     0.013 C 
ATOM      4  C13 UNK     1      -1.523  35.169 233.688  1.00  0.00     0.010 C 
ATOM      5  C14 UNK     1      -0.668  34.967 234.885  1.00  0.00     0.013 C 
ATOM      6  C15 UNK     1       0.608  35.758 235.079  1.00  0.00    -0.025 C 
ENDROOT
BRANCH   1   7
ATOM      7  C9  UNK     1      -1.964  36.150 231.493  1.00  0.00     0.169 C 
BRANCH   7   8
ATOM      8  N2  UNK     1      -1.508  37.244 230.734  1.00  0.00    -0.330 N 
ATOM      9  C2  UNK     1      -2.125  38.508 230.945  1.00  0.00     0.077 C 
ATOM     10  C1  UNK     1      -1.360  39.388 229.899  1.00  0.00     0.152 C 
ATOM     11 Cl1  UNK     1      -1.363  41.149 229.828  1.00  0.00    -0.060 Cl
ATOM     12  N1  UNK     1      -0.404  38.587 229.160  1.00  0.00    -0.221 NA
ATOM     13  C4  UNK     1      -0.693  37.228 229.514  1.00  0.00     0.108 C 
BRANCH   9  14
ATOM     14  C3  UNK     1      -2.924  38.952 232.170  1.00  0.00     0.224 C 
BRANCH  14  15
ATOM     15  O1  UNK     1      -2.127  39.521 233.201  1.00  0.00    -0.395 OA
ATOM     16  H3  UNK     1      -2.539  39.366 234.042  1.00  0.00     0.209 HD
ENDBRANCH  14  15
ENDBRANCH   9  14
BRANCH  13  17
ATOM     17  C5  UNK     1       0.133  36.099 228.920  1.00  0.00     0.079 C 
BRANCH  17  18
ATOM     18  C6  UNK     1       0.120  36.144 227.383  1.00  0.00     0.007 C 
BRANCH  18  19
ATOM     19  C7  UNK     1       0.121  34.786 226.674  1.00  0.00    -0.004 C 
ATOM     20  C8  UNK     1       0.700  34.868 225.286  1.00  0.00     0.005 C 
ENDBRANCH  18  19
ENDBRANCH  17  18
ENDBRANCH  13  17
ENDBRANCH   7   8
ENDBRANCH   1   7
BRANCH   6  21
ATOM     21  C16 UNK     1       1.447  35.325 236.283  1.00  0.00    -0.012 C 
ATOM     22  C17 UNK     1       2.045  33.962 236.174  1.00  0.00     0.013 C 
ATOM     23  C18 UNK     1       2.987  33.525 237.260  1.00  0.00     0.001 C 
ATOM     24  C19 UNK     1       3.461  34.511 238.301  1.00  0.00     0.001 C 
ATOM     25  C20 UNK     1       2.971  35.942 238.325  1.00  0.00     0.016 C 
ATOM     26  C21 UNK     1       2.125  36.372 237.142  1.00  0.00     0.026 C 
BRANCH  26  27
ATOM     27  C22 UNK     1       1.505  37.759 237.226  1.00  0.00     0.205 A 
ATOM     28  N3  UNK     1       2.058  38.925 236.558  1.00  0.00    -0.108 NA
ATOM     29  N6  UNK     1       1.282  39.870 237.032  1.00  0.00    -0.049 NA
ATOM     30  N5  UNK     1       0.420  39.384 237.949  1.00  0.00    -0.176 N 
ATOM     31  N4  UNK     1       0.494  38.088 238.207  1.00  0.00    -0.133 NA
ATOM     32  H23 UNK     1      -0.242  39.974 238.410  1.00  0.00     0.214 HD
ENDBRANCH  26  27
ENDBRANCH   6  21
TORSDOF 9
ENDMDL
MODEL 9
REMARK VINA RESULT:      -5.6      3.897      8.053
REMARK  9 active torsions:
REMARK  status: ('A' for Active; 'I' for Inactive)
REMARK    1  A    between atoms: C2_3  and  C3_4 
REMARK    2  A    between atoms: C3_4  and  O1_5 
REMARK    3  A    between atoms: C4_7  and  C5_8 
REMARK    4  A    between atoms: C5_8  and  C6_9 
REMARK    5  A    between atoms: C6_9  and  C7_10 
REMARK    6  A    between atoms: N2_12  and  C9_13 
REMARK    7  A    between atoms: C9_13  and  C10_14 
REMARK    8  A    between atoms: C15_19  and  C16_20 
REMARK    9  A    between atoms: C21_25  and  C22_26 
ROOT
ATOM      1  C10 UNK     1      -1.366  37.618 233.776  1.00  0.00    -0.040 C 
ATOM      2  C11 UNK     1      -2.013  36.848 234.930  1.00  0.00     0.010 C 
ATOM      3  C12 UNK     1      -1.146  35.793 235.643  1.00  0.00     0.013 C 
ATOM      4  C13 UNK     1       0.103  37.656 233.499  1.00  0.00     0.010 C 
ATOM      5  C14 UNK     1       0.925  36.624 234.178  1.00  0.00     0.013 C 
ATOM      6  C15 UNK     1       0.298  35.616 235.116  1.00  0.00    -0.025 C 
ENDROOT
BRANCH   1   7
ATOM      7  C9  UNK     1      -2.005  38.838 233.132  1.00  0.00     0.169 C 
BRANCH   7   8
ATOM      8  N2  UNK     1      -2.637  38.285 232.004  1.00  0.00    -0.330 N 
ATOM      9  C2  UNK     1      -3.922  37.699 232.175  1.00  0.00     0.077 C 
ATOM     10  C1  UNK     1      -4.213  37.195 230.720  1.00  0.00     0.152 C 
ATOM     11 Cl1  UNK     1      -5.775  36.662 230.104  1.00  0.00    -0.060 Cl
ATOM     12  N1  UNK     1      -3.098  37.494 229.845  1.00  0.00    -0.221 NA
ATOM     13  C4  UNK     1      -2.042  37.934 230.709  1.00  0.00     0.108 C 
BRANCH   9  14
ATOM     14  C3  UNK     1      -4.904  37.947 233.319  1.00  0.00     0.224 C 
BRANCH  14  15
ATOM     15  O1  UNK     1      -5.538  36.768 233.799  1.00  0.00    -0.395 OA
ATOM     16  H3  UNK     1      -6.460  36.791 233.573  1.00  0.00     0.209 HD
ENDBRANCH  14  15
ENDBRANCH   9  14
BRANCH  13  17
ATOM     17  C5  UNK     1      -0.701  38.343 230.120  1.00  0.00     0.079 C 
BRANCH  17  18
ATOM     18  C6  UNK     1      -0.004  37.155 229.437  1.00  0.00     0.007 C 
BRANCH  18  19
ATOM     19  C7  UNK     1       0.870  36.282 230.343  1.00  0.00    -0.004 C 
ATOM     20  C8  UNK     1       0.137  35.064 230.840  1.00  0.00     0.005 C 
ENDBRANCH  18  19
ENDBRANCH  17  18
ENDBRANCH  13  17
ENDBRANCH   7   8
ENDBRANCH   1   7
BRANCH   6  21
ATOM     21  C16 UNK     1       1.299  34.720 235.849  1.00  0.00    -0.012 C 
ATOM     22  C17 UNK     1       1.571  33.410 235.186  1.00  0.00     0.013 C 
ATOM     23  C18 UNK     1       2.640  32.537 235.780  1.00  0.00     0.001 C 
ATOM     24  C19 UNK     1       3.536  33.066 236.875  1.00  0.00     0.001 C 
ATOM     25  C20 UNK     1       3.359  34.455 237.447  1.00  0.00     0.016 C 
ATOM     26  C21 UNK     1       2.357  35.343 236.735  1.00  0.00     0.026 C 
BRANCH  26  27
ATOM     27  C22 UNK     1       2.062  36.685 237.388  1.00  0.00     0.205 A 
ATOM     28  N3  UNK     1       2.829  37.890 237.122  1.00  0.00    -0.108 NA
ATOM     29  N6  UNK     1       2.303  38.714 237.996  1.00  0.00    -0.049 NA
ATOM     30  N5  UNK     1       1.395  38.089 238.775  1.00  0.00    -0.176 N 
ATOM     31  N4  UNK     1       1.193  36.803 238.539  1.00  0.00    -0.133 NA
ATOM     32  H23 UNK     1       0.901  38.575 239.496  1.00  0.00     0.214 HD
ENDBRANCH  26  27
ENDBRANCH   6  21
TORSDOF 9
ENDMDL
