REMARK  3 active torsions:
REMARK  status: ('A' for Active; 'I' for Inactive)
REMARK    1  A    between atoms: C6_6  and  C8_11 
REMARK    2  A    between atoms: C7_7  and  C8_11 
REMARK    3  A    between atoms: C12_15  and  N2_16 
ROOT
ATOM      1  C2  UNK     1     -27.440  -8.901  10.630  1.00  0.00     0.033 C 
ATOM      2  C3  UNK     1     -29.794  -9.147   9.954  1.00  0.00     0.224 C 
ATOM      3  C4  UNK     1     -29.243  -9.489  12.251  1.00  0.00     0.237 C 
ATOM      4  C5  UNK     1     -28.555  -8.306   9.777  1.00  0.00     0.105 C 
ATOM      5  O1  UNK     1     -30.579  -9.299   9.028  1.00  0.00    -0.273 OA
ATOM      6  O2  UNK     1     -29.732  -9.703  13.350  1.00  0.00    -0.272 OA
ATOM      7  N1  UNK     1     -29.976  -9.710  11.151  1.00  0.00    -0.297 N 
ATOM      8  C8  UNK     1     -27.809  -8.991  12.114  1.00  0.00     0.068 C 
ATOM      9  H8  UNK     1     -30.733 -10.359  11.235  1.00  0.00     0.171 HD
ENDROOT
BRANCH   8  10
ATOM     10  C6  UNK     1     -26.767  -9.959  12.665  1.00  0.00    -0.040 A 
ATOM     11  C10 UNK     1     -25.461  -9.509  12.901  1.00  0.00     0.010 A 
ATOM     12  C11 UNK     1     -24.474 -10.367  13.380  1.00  0.00     0.024 A 
ATOM     13  C12 UNK     1     -24.766 -11.700  13.615  1.00  0.00     0.005 A 
ATOM     14  C1  UNK     1     -26.054 -12.174  13.374  1.00  0.00     0.024 A 
ATOM     15  C13 UNK     1     -27.045 -11.312  12.897  1.00  0.00     0.010 A 
BRANCH  13  16
ATOM     16  N2  UNK     1     -23.790 -12.517  14.075  1.00  0.00    -0.303 NA
ATOM     17  H14 UNK     1     -22.943 -11.997  14.184  1.00  0.00     0.124 HD
ATOM     18  H15 UNK     1     -24.064 -12.899  14.958  1.00  0.00     0.124 HD
ENDBRANCH  13  16
ENDBRANCH   8  10
BRANCH   8  19
ATOM     19  C7  UNK     1     -27.693  -7.579  12.713  1.00  0.00     0.020 C 
ATOM     20  C9  UNK     1     -27.957  -7.477  14.195  1.00  0.00     0.006 C 
ENDBRANCH   8  19
TORSDOF 3
