REMARK  7 active torsions:
REMARK  status: ('A' for Active; 'I' for Inactive)
REMARK    1  A    between atoms: N1_4  and  C6_12 
REMARK    2  A    between atoms: N2_5  and  C1_7 
REMARK    3  A    between atoms: C6_12  and  C7_13 
REMARK    4  A    between atoms: C7_13  and  C9_15 
REMARK    5  A    between atoms: C9_15  and  C11_17 
REMARK    6  A    between atoms: C11_17  and  C14_20 
REMARK    7  A    between atoms: C11_17  and  C15_21 
ROOT
ATOM      1  C6  UNK     1     -50.166   5.367  26.242  1.00  0.00     0.272 C 
ENDROOT
BRANCH   1   2
ATOM      2  N1  UNK     1     -49.692   4.999  24.907  1.00  0.00     0.088 N 
ATOM      3  C4  UNK     1     -49.768   6.153  24.000  1.00  0.00     0.274 C 
ATOM      4  C2  UNK     1     -49.326   5.773  22.585  1.00  0.00     0.056 C 
ATOM      5  C1  UNK     1     -47.920   5.173  22.586  1.00  0.00     0.098 C 
ATOM      6  C3  UNK     1     -47.833   4.028  23.596  1.00  0.00     0.056 C 
ATOM      7  C5  UNK     1     -48.325   4.467  24.976  1.00  0.00     0.274 C 
BRANCH   5   8
ATOM      8  N2  UNK     1     -47.549   4.731  21.266  1.00  0.00    -0.293 N 
ATOM      9  C8  UNK     1     -46.472   5.222  20.516  1.00  0.00     0.066 A 
ATOM     10  C12 UNK     1     -46.452   4.539  19.302  1.00  0.00     0.063 A 
ATOM     11  C13 UNK     1     -45.538   6.193  20.813  1.00  0.00     0.032 A 
ATOM     12  N3  UNK     1     -47.507   3.626  19.286  1.00  0.00    -0.306 N 
ATOM     13  C16 UNK     1     -45.508   4.788  18.330  1.00  0.00     0.032 A 
ATOM     14  C10 UNK     1     -48.219   3.725  20.516  1.00  0.00     0.328 A 
ATOM     15  H17 UNK     1     -47.721   3.002  18.519  1.00  0.00     0.171 HD
ATOM     16  O1  UNK     1     -49.200   3.072  20.842  1.00  0.00    -0.246 OA
ATOM     17  C18 UNK     1     -44.554   5.769  18.613  1.00  0.00     0.002 A 
ATOM     18  C17 UNK     1     -44.570   6.464  19.841  1.00  0.00     0.002 A 
ENDBRANCH   5   8
ENDBRANCH   1   2
BRANCH   1  19
ATOM     19  C7  UNK     1     -51.601   5.887  26.170  1.00  0.00     0.031 C 
BRANCH  19  20
ATOM     20  C9  UNK     1     -52.544   4.827  25.581  1.00  0.00     0.016 C 
BRANCH  20  21
ATOM     21  C11 UNK     1     -54.029   5.277  25.589  1.00  0.00     0.051 C 
BRANCH  21  22
ATOM     22  C14 UNK     1     -54.301   6.504  24.730  1.00  0.00    -0.049 A 
ATOM     23  C19 UNK     1     -54.199   7.754  25.304  1.00  0.00     0.011 A 
ATOM     24  C23 UNK     1     -54.449   8.878  24.518  1.00  0.00     0.043 A 
ATOM     25  C27 UNK     1     -54.796   8.727  23.175  1.00  0.00     0.116 A 
ATOM     26  F1  UNK     1     -55.036   9.807  22.419  1.00  0.00    -0.206 F 
ATOM     27  C25 UNK     1     -54.892   7.451  22.618  1.00  0.00     0.043 A 
ATOM     28  C21 UNK     1     -54.641   6.327  23.405  1.00  0.00     0.011 A 
ENDBRANCH  21  22
BRANCH  21  29
ATOM     29  C15 UNK     1     -54.998   4.145  25.258  1.00  0.00    -0.049 A 
ATOM     30  C20 UNK     1     -56.263   4.175  25.804  1.00  0.00     0.011 A 
ATOM     31  C24 UNK     1     -57.148   3.141  25.501  1.00  0.00     0.043 A 
ATOM     32  C28 UNK     1     -56.747   2.103  24.661  1.00  0.00     0.116 A 
ATOM     33  F2  UNK     1     -57.597   1.109  24.371  1.00  0.00    -0.206 F 
ATOM     34  C26 UNK     1     -55.461   2.098  24.123  1.00  0.00     0.043 A 
ATOM     35  C22 UNK     1     -54.574   3.133  24.426  1.00  0.00     0.011 A 
ENDBRANCH  21  29
ENDBRANCH  20  21
ENDBRANCH  19  20
ENDBRANCH   1  19
TORSDOF 7
