REMARK  4 active torsions:
REMARK  status: ('A' for Active; 'I' for Inactive)
REMARK    1  A    between atoms: C1_2  and  O2_3 
REMARK    2  A    between atoms: C1_2  and  C2_4 
REMARK    3  A    between atoms: C7_9  and  N1_10 
REMARK    4  A    between atoms: N1_10  and  C8_11 
ROOT
ATOM      1  C2  UNK     1     -33.418  12.971  42.112  1.00  0.00     0.064 A 
ATOM      2  C3  UNK     1     -33.149  12.683  43.455  1.00  0.00     0.020 A 
ATOM      3  C4  UNK     1     -32.358  11.591  43.804  1.00  0.00     0.001 A 
ATOM      4  C5  UNK     1     -31.819  10.760  42.826  1.00  0.00     0.002 A 
ATOM      5  C6  UNK     1     -32.059  10.997  41.467  1.00  0.00     0.030 A 
ATOM      6  C7  UNK     1     -32.869  12.068  41.031  1.00  0.00     0.049 A 
ENDROOT
BRANCH   6   7
ATOM      7  N1  UNK     1     -33.177  12.391  39.716  1.00  0.00    -0.355 N 
ATOM      8  H6  UNK     1     -33.888  13.063  39.509  1.00  0.00     0.166 HD
BRANCH   7   9
ATOM      9  C8  UNK     1     -32.492  11.775  38.716  1.00  0.00     0.039 A 
ATOM     10  C9  UNK     1     -32.530  10.286  38.518  1.00  0.00    -0.029 A 
ATOM     11  C10 UNK     1     -33.549   9.412  39.218  1.00  0.00     0.051 C 
ATOM     12  C14 UNK     1     -31.543   9.679  37.577  1.00  0.00    -0.054 A 
ATOM     13  C13 UNK     1     -30.612  10.498  36.938  1.00  0.00     0.007 A 
ATOM     14  C15 UNK     1     -31.539   8.197  37.301  1.00  0.00     0.049 C 
ATOM     15  C12 UNK     1     -30.590  11.873  37.176  1.00  0.00     0.003 A 
ATOM     16  C11 UNK     1     -31.491  12.495  38.053  1.00  0.00     0.030 A 
ENDBRANCH   7   9
ENDBRANCH   6   7
BRANCH   1  17
ATOM     17  C1  UNK     1     -34.300  14.169  41.777  1.00  0.00     0.178 C 
ATOM     18  O1  UNK     1     -35.255  14.460  42.541  1.00  0.00    -0.646 OA
BRANCH  17  19
ATOM     19  O2  UNK     1     -34.093  14.846  40.734  1.00  0.00    -0.773 OA
ATOM     20  H1  UNK     1     -34.743  15.536  40.669  1.00  0.00     0.167 HD
ENDBRANCH  17  19
ENDBRANCH   1  17
TORSDOF 4
