MODEL 1
REMARK VINA RESULT:      -8.5      0.000      0.000
REMARK  9 active torsions:
REMARK  status: ('A' for Active; 'I' for Inactive)
REMARK    1  A    between atoms: C10_14  and  O6_16 
REMARK    2  A    between atoms: C16_23  and  O7_24 
REMARK    3  A    between atoms: C27_36  and  O9_37 
REMARK    4  A    between atoms: C28_38  and  O10_39 
REMARK    5  A    between atoms: C34_47  and  C35_48 
REMARK    6  A    between atoms: C35_48  and  C36_49 
REMARK    7  A    between atoms: C36_49  and  C37_50 
REMARK    8  A    between atoms: C39_52  and  O12_53 
REMARK    9  A    between atoms: C40_54  and  O13_55 
ROOT
HETATM    1  C1  RAP  6544      -4.589  37.931 228.920  1.00 20.00     0.282 C 
HETATM    2  O1  RAP  6544      -3.283  37.381 229.046  1.00 20.00    -0.314 OA
HETATM    3  O2  RAP  6544      -4.890  38.875 229.649  1.00 20.00    -0.263 OA
HETATM    4  C2  RAP  6544      -5.593  37.412 227.893  1.00 20.00     0.187 C 
HETATM    5  C3  RAP  6544      -6.978  37.268 228.506  1.00 20.00     0.035 C 
HETATM    6  C4  RAP  6544      -7.118  36.061 229.422  1.00 20.00     0.004 C 
HETATM    7  C5  RAP  6544      -6.711  34.825 228.641  1.00 20.00     0.020 C 
HETATM    8  C6  RAP  6544      -5.308  34.952 228.134  1.00 20.00     0.127 C 
HETATM    9  N7  RAP  6544      -5.251  36.135 227.261  1.00 20.00    -0.331 N 
HETATM   10  C8  RAP  6544      -4.745  36.105 226.018  1.00 20.00     0.296 C 
HETATM   11  O3  RAP  6544      -4.653  37.172 225.395  1.00 20.00    -0.264 OA
HETATM   12  C9  RAP  6544      -4.388  34.907 225.361  1.00 20.00     0.278 C 
HETATM   13  O4  RAP  6544      -5.255  34.282 224.737  1.00 20.00    -0.281 OA
HETATM   14  C10 RAP  6544      -2.955  34.346 225.388  1.00 20.00     0.238 C 
HETATM   15  O5  RAP  6544      -2.802  33.772 226.667  1.00 20.00    -0.343 OA
HETATM   16  C11 RAP  6544      -1.843  35.453 225.178  1.00 20.00     0.053 C 
HETATM   17  C12 RAP  6544      -0.438  34.908 225.525  1.00 20.00     0.013 C 
HETATM   18  C13 RAP  6544      -0.454  34.215 226.880  1.00 20.00     0.033 C 
HETATM   19  C14 RAP  6544      -1.594  33.213 227.037  1.00 20.00     0.128 C 
HETATM   20  C15 RAP  6544      -1.764  32.856 228.503  1.00 20.00     0.068 C 
HETATM   21  C16 RAP  6544      -0.659  32.015 229.134  1.00 20.00     0.151 C 
HETATM   22  C17 RAP  6544      -0.930  31.762 230.602  1.00 20.00    -0.055 C 
HETATM   23  C18 RAP  6544      -0.114  32.302 231.498  1.00 20.00     0.005 C 
HETATM   24  C19 RAP  6544      -0.263  32.170 232.954  1.00 20.00     0.000 C 
HETATM   25  C20 RAP  6544       0.650  32.714 233.746  1.00 20.00    -0.000 C 
HETATM   26  C21 RAP  6544       0.496  32.699 235.214  1.00 20.00    -0.004 C 
HETATM   27  C22 RAP  6544       1.282  33.406 236.003  1.00 20.00    -0.022 C 
HETATM   28  C23 RAP  6544       1.104  33.517 237.502  1.00 20.00     0.005 C 
HETATM   29  C24 RAP  6544       0.984  34.998 237.817  1.00 20.00     0.020 C 
HETATM   30  C25 RAP  6544      -0.056  35.789 237.047  1.00 20.00     0.055 C 
HETATM   31  C26 RAP  6544       0.252  37.279 237.097  1.00 20.00     0.162 C 
HETATM   32  O8  RAP  6544      -0.141  37.985 238.022  1.00 20.00    -0.295 OA
HETATM   33  C27 RAP  6544       1.061  37.850 235.936  1.00 20.00     0.223 C 
HETATM   34  C28 RAP  6544       0.191  38.217 234.690  1.00 20.00     0.183 C 
HETATM   35  C29 RAP  6544      -0.141  37.009 233.793  1.00 20.00    -0.056 C 
HETATM   36  C30 RAP  6544      -1.366  36.498 233.686  1.00 20.00    -0.010 C 
HETATM   37  C31 RAP  6544      -1.873  35.338 232.815  1.00 20.00     0.074 C 
HETATM   38  C32 RAP  6544      -2.627  35.896 231.608  1.00 20.00     0.136 C 
HETATM   39  O11 RAP  6544      -3.860  35.895 231.546  1.00 20.00    -0.297 OA
HETATM   40  C33 RAP  6544      -1.761  36.506 230.512  1.00 20.00     0.112 C 
HETATM   41  C34 RAP  6544      -2.340  37.797 229.971  1.00 20.00     0.142 C 
HETATM   42  C43 RAP  6544      -1.838  36.133 223.778  1.00 20.00     0.016 C 
HETATM   43  C44 RAP  6544      -2.135  30.858 230.912  1.00 20.00     0.046 C 
HETATM   44  C45 RAP  6544       2.286  32.903 238.238  1.00 20.00     0.014 C 
HETATM   45  C46 RAP  6544      -1.471  35.508 237.558  1.00 20.00     0.018 C 
HETATM   46  C47 RAP  6544       1.053  36.439 233.049  1.00 20.00     0.046 C 
HETATM   47  C48 RAP  6544      -2.815  34.461 233.656  1.00 20.00     0.022 C 
ENDROOT
BRANCH  41  48
HETATM   48  C35 RAP  6544      -1.405  38.761 229.214  1.00 20.00     0.012 C 
HETATM   49  C49 RAP  6544       0.029  38.323 229.270  1.00 20.00     0.012 C 
BRANCH  48  50
HETATM   50  C36 RAP  6544      -1.544  40.201 229.704  1.00 20.00     0.011 C 
BRANCH  50  51
HETATM   51  C37 RAP  6544      -0.730  41.273 228.976  1.00 20.00    -0.012 C 
HETATM   52  C42 RAP  6544      -0.105  42.341 229.872  1.00 20.00     0.007 C 
HETATM   53  C41 RAP  6544       0.730  43.343 229.086  1.00 20.00     0.035 C 
HETATM   54  C40 RAP  6544      -0.097  43.978 227.950  1.00 20.00     0.147 C 
HETATM   55  C39 RAP  6544      -0.789  42.918 227.023  1.00 20.00     0.150 C 
HETATM   56  C38 RAP  6544      -1.576  41.918 227.873  1.00 20.00     0.039 C 
BRANCH  54  57
HETATM   57  O13 RAP  6544       0.755  44.803 227.158  1.00 20.00    -0.393 OA
ATOM     58  H13 RAP  6544       0.238  45.225 226.482  1.00  0.00     0.210 HD
ENDBRANCH  54  57
BRANCH  55  59
HETATM   59  O12 RAP  6544      -1.719  43.543 226.177  1.00 20.00    -0.388 OA
HETATM   60  C52 RAP  6544      -2.496  42.712 225.383  1.00 20.00     0.202 C 
ENDBRANCH  55  59
ENDBRANCH  50  51
ENDBRANCH  48  50
ENDBRANCH  41  48
BRANCH  34  61
HETATM   61  O10 RAP  6544      -1.022  38.812 235.172  1.00 20.00    -0.388 OA
ATOM     62  H10 RAP  6544      -1.416  39.285 234.448  1.00  0.00     0.210 HD
ENDBRANCH  34  61
BRANCH  33  63
HETATM   63  O9  RAP  6544       1.677  39.037 236.359  1.00 20.00    -0.380 OA
HETATM   64  C51 RAP  6544       2.697  38.884 237.283  1.00 20.00     0.202 C 
ENDBRANCH  33  63
BRANCH  14  65
HETATM   65  O6  RAP  6544      -2.827  33.358 224.362  1.00 20.00    -0.359 OA
ATOM     66  H6  RAP  6544      -1.939  33.020 224.369  1.00  0.00     0.213 HD
ENDBRANCH  14  65
BRANCH  21  67
HETATM   67  O7  RAP  6544      -0.608  30.801 228.456  1.00 20.00    -0.386 OA
HETATM   68  C50 RAP  6544       0.576  30.520 227.780  1.00 20.00     0.202 C 
ENDBRANCH  21  67
TORSDOF 9
ENDMDL
MODEL 2
REMARK VINA RESULT:      -8.5      3.006      9.562
REMARK  9 active torsions:
REMARK  status: ('A' for Active; 'I' for Inactive)
REMARK    1  A    between atoms: C10_14  and  O6_16 
REMARK    2  A    between atoms: C16_23  and  O7_24 
REMARK    3  A    between atoms: C27_36  and  O9_37 
REMARK    4  A    between atoms: C28_38  and  O10_39 
REMARK    5  A    between atoms: C34_47  and  C35_48 
REMARK    6  A    between atoms: C35_48  and  C36_49 
REMARK    7  A    between atoms: C36_49  and  C37_50 
REMARK    8  A    between atoms: C39_52  and  O12_53 
REMARK    9  A    between atoms: C40_54  and  O13_55 
ROOT
HETATM    1  C1  RAP  6544      -0.151  36.722 229.694  1.00 20.00     0.282 C 
HETATM    2  O1  RAP  6544      -1.406  37.320 229.995  1.00 20.00    -0.314 OA
HETATM    3  O2  RAP  6544       0.613  37.328 228.946  1.00 20.00    -0.263 OA
HETATM    4  C2  RAP  6544       0.278  35.386 230.299  1.00 20.00     0.187 C 
HETATM    5  C3  RAP  6544       0.915  34.488 229.248  1.00 20.00     0.035 C 
HETATM    6  C4  RAP  6544      -0.089  33.862 228.291  1.00 20.00     0.004 C 
HETATM    7  C5  RAP  6544      -1.131  33.125 229.112  1.00 20.00     0.020 C 
HETATM    8  C6  RAP  6544      -1.812  34.055 230.068  1.00 20.00     0.127 C 
HETATM    9  N7  RAP  6544      -0.784  34.618 230.957  1.00 20.00    -0.331 N 
HETATM   10  C8  RAP  6544      -0.884  34.605 232.296  1.00 20.00     0.296 C 
HETATM   11  O3  RAP  6544      -0.013  35.189 232.955  1.00 20.00    -0.264 OA
HETATM   12  C9  RAP  6544      -1.889  33.893 232.984  1.00 20.00     0.278 C 
HETATM   13  O4  RAP  6544      -1.704  32.699 233.253  1.00 20.00    -0.281 OA
HETATM   14  C10 RAP  6544      -3.214  34.546 233.421  1.00 20.00     0.238 C 
HETATM   15  O5  RAP  6544      -3.988  34.641 232.246  1.00 20.00    -0.343 OA
HETATM   16  C11 RAP  6544      -3.027  35.991 234.039  1.00 20.00     0.053 C 
HETATM   17  C12 RAP  6544      -4.382  36.725 234.165  1.00 20.00     0.013 C 
HETATM   18  C13 RAP  6544      -5.156  36.645 232.858  1.00 20.00     0.033 C 
HETATM   19  C14 RAP  6544      -5.236  35.234 232.284  1.00 20.00     0.128 C 
HETATM   20  C15 RAP  6544      -5.681  35.295 230.834  1.00 20.00     0.068 C 
HETATM   21  C16 RAP  6544      -7.127  35.705 230.579  1.00 20.00     0.151 C 
HETATM   22  C17 RAP  6544      -7.431  35.763 229.097  1.00 20.00    -0.055 C 
HETATM   23  C18 RAP  6544      -7.701  36.942 228.553  1.00 20.00     0.005 C 
HETATM   24  C19 RAP  6544      -7.986  37.162 227.127  1.00 20.00     0.000 C 
HETATM   25  C20 RAP  6544      -8.295  38.382 226.714  1.00 20.00    -0.000 C 
HETATM   26  C21 RAP  6544      -8.490  38.678 225.281  1.00 20.00    -0.004 C 
HETATM   27  C22 RAP  6544      -8.594  39.915 224.834  1.00 20.00    -0.022 C 
HETATM   28  C23 RAP  6544      -8.686  40.284 223.369  1.00 20.00     0.005 C 
HETATM   29  C24 RAP  6544      -7.548  41.251 223.092  1.00 20.00     0.020 C 
HETATM   30  C25 RAP  6544      -6.152  40.815 223.497  1.00 20.00     0.055 C 
HETATM   31  C26 RAP  6544      -5.224  42.016 223.615  1.00 20.00     0.162 C 
HETATM   32  O8  RAP  6544      -4.620  42.459 222.641  1.00 20.00    -0.295 OA
HETATM   33  C27 RAP  6544      -5.073  42.630 225.003  1.00 20.00     0.223 C 
HETATM   34  C28 RAP  6544      -4.015  41.905 225.896  1.00 20.00     0.183 C 
HETATM   35  C29 RAP  6544      -4.553  40.632 226.578  1.00 20.00    -0.056 C 
HETATM   36  C30 RAP  6544      -4.157  39.405 226.244  1.00 20.00    -0.010 C 
HETATM   37  C31 RAP  6544      -4.554  38.048 226.844  1.00 20.00     0.074 C 
HETATM   38  C32 RAP  6544      -3.430  37.538 227.747  1.00 20.00     0.136 C 
HETATM   39  O11 RAP  6544      -2.651  36.650 227.388  1.00 20.00    -0.297 OA
HETATM   40  C33 RAP  6544      -3.298  38.238 229.095  1.00 20.00     0.112 C 
HETATM   41  C34 RAP  6544      -1.855  38.516 229.460  1.00 20.00     0.142 C 
HETATM   42  C43 RAP  6544      -2.247  36.043 235.385  1.00 20.00     0.016 C 
HETATM   43  C44 RAP  6544      -7.425  34.412 228.361  1.00 20.00     0.046 C 
HETATM   44  C45 RAP  6544     -10.028  40.925 223.050  1.00 20.00     0.014 C 
HETATM   45  C46 RAP  6544      -5.581  39.778 222.526  1.00 20.00     0.018 C 
HETATM   46  C47 RAP  6544      -5.587  40.894 227.657  1.00 20.00     0.046 C 
HETATM   47  C48 RAP  6544      -4.793  37.049 225.699  1.00 20.00     0.022 C 
ENDROOT
BRANCH  41  48
HETATM   48  C35 RAP  6544      -1.561  39.590 230.528  1.00 20.00     0.012 C 
HETATM   49  C49 RAP  6544      -2.217  39.278 231.842  1.00 20.00     0.012 C 
BRANCH  48  50
HETATM   50  C36 RAP  6544      -1.945  40.990 230.056  1.00 20.00     0.011 C 
BRANCH  50  51
HETATM   51  C37 RAP  6544      -1.033  41.659 229.025  1.00 20.00    -0.012 C 
HETATM   52  C42 RAP  6544       0.351  41.030 228.869  1.00 20.00     0.007 C 
HETATM   53  C41 RAP  6544       1.183  41.716 227.794  1.00 20.00     0.035 C 
HETATM   54  C40 RAP  6544       1.282  43.232 228.058  1.00 20.00     0.147 C 
HETATM   55  C39 RAP  6544      -0.114  43.916 228.262  1.00 20.00     0.150 C 
HETATM   56  C38 RAP  6544      -0.916  43.159 229.322  1.00 20.00     0.039 C 
BRANCH  54  57
HETATM   57  O13 RAP  6544       1.950  43.853 226.962  1.00 20.00    -0.393 OA
ATOM     58  H13 RAP  6544       2.554  44.506 227.296  1.00  0.00     0.210 HD
ENDBRANCH  54  57
BRANCH  55  59
HETATM   59  O12 RAP  6544       0.050  45.225 228.744  1.00 20.00    -0.388 OA
HETATM   60  C52 RAP  6544       0.801  45.375 229.900  1.00 20.00     0.202 C 
ENDBRANCH  55  59
ENDBRANCH  50  51
ENDBRANCH  48  50
ENDBRANCH  41  48
BRANCH  34  61
HETATM   61  O10 RAP  6544      -2.899  41.572 225.057  1.00 20.00    -0.388 OA
ATOM     62  H10 RAP  6544      -2.639  40.683 225.267  1.00  0.00     0.210 HD
ENDBRANCH  34  61
BRANCH  33  63
HETATM   63  O9  RAP  6544      -4.638  43.956 224.862  1.00 20.00    -0.380 OA
HETATM   64  C51 RAP  6544      -5.174  44.860 225.765  1.00 20.00     0.202 C 
ENDBRANCH  33  63
BRANCH  14  65
HETATM   65  O6  RAP  6544      -3.847  33.705 234.388  1.00 20.00    -0.359 OA
ATOM     66  H6  RAP  6544      -4.778  33.893 234.399  1.00  0.00     0.213 HD
ENDBRANCH  14  65
BRANCH  21  67
HETATM   67  O7  RAP  6544      -7.951  34.760 231.184  1.00 20.00    -0.386 OA
HETATM   68  C50 RAP  6544      -9.098  35.247 231.805  1.00 20.00     0.202 C 
ENDBRANCH  21  67
TORSDOF 9
ENDMDL
MODEL 3
REMARK VINA RESULT:      -8.3      2.131      3.295
REMARK  9 active torsions:
REMARK  status: ('A' for Active; 'I' for Inactive)
REMARK    1  A    between atoms: C10_14  and  O6_16 
REMARK    2  A    between atoms: C16_23  and  O7_24 
REMARK    3  A    between atoms: C27_36  and  O9_37 
REMARK    4  A    between atoms: C28_38  and  O10_39 
REMARK    5  A    between atoms: C34_47  and  C35_48 
REMARK    6  A    between atoms: C35_48  and  C36_49 
REMARK    7  A    between atoms: C36_49  and  C37_50 
REMARK    8  A    between atoms: C39_52  and  O12_53 
REMARK    9  A    between atoms: C40_54  and  O13_55 
ROOT
HETATM    1  C1  RAP  6544      -5.502  35.971 232.577  1.00 20.00     0.282 C 
HETATM    2  O1  RAP  6544      -4.104  35.913 232.322  1.00 20.00    -0.314 OA
HETATM    3  O2  RAP  6544      -5.876  36.471 233.636  1.00 20.00    -0.263 OA
HETATM    4  C2  RAP  6544      -6.533  35.471 231.566  1.00 20.00     0.187 C 
HETATM    5  C3  RAP  6544      -7.623  34.661 232.251  1.00 20.00     0.035 C 
HETATM    6  C4  RAP  6544      -7.179  33.264 232.660  1.00 20.00     0.004 C 
HETATM    7  C5  RAP  6544      -6.636  32.560 231.430  1.00 20.00     0.020 C 
HETATM    8  C6  RAP  6544      -5.498  33.330 230.835  1.00 20.00     0.127 C 
HETATM    9  N7  RAP  6544      -6.001  34.662 230.466  1.00 20.00    -0.331 N 
HETATM   10  C8  RAP  6544      -5.828  35.200 229.248  1.00 20.00     0.296 C 
HETATM   11  O3  RAP  6544      -6.204  36.365 229.062  1.00 20.00    -0.264 OA
HETATM   12  C9  RAP  6544      -5.312  34.474 228.153  1.00 20.00     0.278 C 
HETATM   13  O4  RAP  6544      -6.086  33.806 227.455  1.00 20.00    -0.281 OA
HETATM   14  C10 RAP  6544      -3.816  34.483 227.787  1.00 20.00     0.238 C 
HETATM   15  O5  RAP  6544      -3.196  33.637 228.730  1.00 20.00    -0.343 OA
HETATM   16  C11 RAP  6544      -3.159  35.921 227.866  1.00 20.00     0.053 C 
HETATM   17  C12 RAP  6544      -1.616  35.835 227.805  1.00 20.00     0.013 C 
HETATM   18  C13 RAP  6544      -1.099  34.801 228.794  1.00 20.00     0.033 C 
HETATM   19  C14 RAP  6544      -1.826  33.461 228.709  1.00 20.00     0.128 C 
HETATM   20  C15 RAP  6544      -1.521  32.634 229.945  1.00 20.00     0.068 C 
HETATM   21  C16 RAP  6544      -0.101  32.093 230.073  1.00 20.00     0.151 C 
HETATM   22  C17 RAP  6544       0.080  31.320 231.362  1.00 20.00    -0.055 C 
HETATM   23  C18 RAP  6544       0.898  31.812 232.283  1.00 20.00     0.005 C 
HETATM   24  C19 RAP  6544       1.154  31.193 233.592  1.00 20.00     0.000 C 
HETATM   25  C20 RAP  6544       2.036  31.754 234.407  1.00 20.00    -0.000 C 
HETATM   26  C21 RAP  6544       2.256  31.234 235.771  1.00 20.00    -0.004 C 
HETATM   27  C22 RAP  6544       2.972  31.895 236.660  1.00 20.00    -0.022 C 
HETATM   28  C23 RAP  6544       3.142  31.467 238.102  1.00 20.00     0.005 C 
HETATM   29  C24 RAP  6544       2.679  32.632 238.959  1.00 20.00     0.020 C 
HETATM   30  C25 RAP  6544       1.299  33.196 238.678  1.00 20.00     0.055 C 
HETATM   31  C26 RAP  6544       1.165  34.605 239.240  1.00 20.00     0.162 C 
HETATM   32  O8  RAP  6544       0.823  34.801 240.403  1.00 20.00    -0.295 OA
HETATM   33  C27 RAP  6544       1.465  35.754 238.283  1.00 20.00     0.223 C 
HETATM   34  C28 RAP  6544       0.249  36.151 237.385  1.00 20.00     0.183 C 
HETATM   35  C29 RAP  6544       0.072  35.245 236.151  1.00 20.00    -0.056 C 
HETATM   36  C30 RAP  6544      -0.940  34.389 236.017  1.00 20.00    -0.010 C 
HETATM   37  C31 RAP  6544      -1.287  33.454 234.848  1.00 20.00     0.074 C 
HETATM   38  C32 RAP  6544      -2.441  34.049 234.041  1.00 20.00     0.136 C 
HETATM   39  O11 RAP  6544      -3.597  33.626 234.140  1.00 20.00    -0.297 OA
HETATM   40  C33 RAP  6544      -2.084  35.234 233.152  1.00 20.00     0.112 C 
HETATM   41  C34 RAP  6544      -3.126  36.332 233.209  1.00 20.00     0.142 C 
HETATM   42  C43 RAP  6544      -3.693  36.954 226.832  1.00 20.00     0.016 C 
HETATM   43  C44 RAP  6544      -0.698  29.997 231.462  1.00 20.00     0.046 C 
HETATM   44  C45 RAP  6544       4.593  31.121 238.401  1.00 20.00     0.014 C 
HETATM   45  C46 RAP  6544       0.195  32.285 239.221  1.00 20.00     0.018 C 
HETATM   46  C47 RAP  6544       1.160  35.398 235.104  1.00 20.00     0.046 C 
HETATM   47  C48 RAP  6544      -1.699  32.085 235.413  1.00 20.00     0.022 C 
ENDROOT
BRANCH  41  48
HETATM   48  C35 RAP  6544      -2.725  37.749 232.754  1.00 20.00     0.012 C 
HETATM   49  C49 RAP  6544      -3.679  38.797 233.251  1.00 20.00     0.012 C 
BRANCH  48  50
HETATM   50  C36 RAP  6544      -2.567  37.845 231.239  1.00 20.00     0.011 C 
BRANCH  50  51
HETATM   51  C37 RAP  6544      -2.729  39.226 230.600  1.00 20.00    -0.012 C 
HETATM   52  C42 RAP  6544      -3.820  39.333 229.536  1.00 20.00     0.007 C 
HETATM   53  C41 RAP  6544      -3.957  40.744 228.982  1.00 20.00     0.035 C 
HETATM   54  C40 RAP  6544      -2.604  41.261 228.452  1.00 20.00     0.147 C 
HETATM   55  C39 RAP  6544      -1.443  41.138 229.499  1.00 20.00     0.150 C 
HETATM   56  C38 RAP  6544      -1.383  39.711 230.047  1.00 20.00     0.039 C 
BRANCH  54  57
HETATM   57  O13 RAP  6544      -2.744  42.628 228.070  1.00 20.00    -0.393 OA
ATOM     58  H13 RAP  6544      -2.106  42.829 227.395  1.00  0.00     0.210 HD
ENDBRANCH  54  57
BRANCH  55  59
HETATM   59  O12 RAP  6544      -0.203  41.381 228.884  1.00 20.00    -0.388 OA
HETATM   60  C52 RAP  6544       0.495  42.502 229.309  1.00 20.00     0.202 C 
ENDBRANCH  55  59
ENDBRANCH  50  51
ENDBRANCH  48  50
ENDBRANCH  41  48
BRANCH  34  61
HETATM   61  O10 RAP  6544      -0.928  36.094 238.202  1.00 20.00    -0.388 OA
ATOM     62  H10 RAP  6544      -1.555  35.532 237.762  1.00  0.00     0.210 HD
ENDBRANCH  34  61
BRANCH  33  63
HETATM   63  O9  RAP  6544       1.795  36.891 239.037  1.00 20.00    -0.380 OA
HETATM   64  C51 RAP  6544       2.029  38.044 238.306  1.00 20.00     0.202 C 
ENDBRANCH  33  63
BRANCH  14  65
HETATM   65  O6  RAP  6544      -3.662  33.974 226.460  1.00 20.00    -0.359 OA
ATOM     66  H6  RAP  6544      -4.487  34.063 225.997  1.00  0.00     0.213 HD
ENDBRANCH  14  65
BRANCH  21  67
HETATM   67  O7  RAP  6544       0.132  31.250 228.990  1.00 20.00    -0.386 OA
HETATM   68  C50 RAP  6544       1.208  31.578 228.171  1.00 20.00     0.202 C 
ENDBRANCH  21  67
TORSDOF 9
ENDMDL
MODEL 4
REMARK VINA RESULT:      -7.8      3.579      6.995
REMARK  9 active torsions:
REMARK  status: ('A' for Active; 'I' for Inactive)
REMARK    1  A    between atoms: C10_14  and  O6_16 
REMARK    2  A    between atoms: C16_23  and  O7_24 
REMARK    3  A    between atoms: C27_36  and  O9_37 
REMARK    4  A    between atoms: C28_38  and  O10_39 
REMARK    5  A    between atoms: C34_47  and  C35_48 
REMARK    6  A    between atoms: C35_48  and  C36_49 
REMARK    7  A    between atoms: C36_49  and  C37_50 
REMARK    8  A    between atoms: C39_52  and  O12_53 
REMARK    9  A    between atoms: C40_54  and  O13_55 
ROOT
HETATM    1  C1  RAP  6544      -0.731  37.167 232.690  1.00 20.00     0.282 C 
HETATM    2  O1  RAP  6544      -0.860  35.762 232.874  1.00 20.00    -0.314 OA
HETATM    3  O2  RAP  6544      -0.421  37.850 233.664  1.00 20.00    -0.263 OA
HETATM    4  C2  RAP  6544      -0.925  37.828 231.326  1.00 20.00     0.187 C 
HETATM    5  C3  RAP  6544      -1.756  39.097 231.447  1.00 20.00     0.035 C 
HETATM    6  C4  RAP  6544      -3.240  38.837 231.660  1.00 20.00     0.004 C 
HETATM    7  C5  RAP  6544      -3.730  37.942 230.536  1.00 20.00     0.020 C 
HETATM    8  C6  RAP  6544      -2.961  36.657 230.505  1.00 20.00     0.127 C 
HETATM    9  N7  RAP  6544      -1.543  36.987 230.297  1.00 20.00    -0.331 N 
HETATM   10  C8  RAP  6544      -0.790  36.421 229.339  1.00 20.00     0.296 C 
HETATM   11  O3  RAP  6544       0.418  36.694 229.304  1.00 20.00    -0.264 OA
HETATM   12  C9  RAP  6544      -1.326  35.596 228.327  1.00 20.00     0.278 C 
HETATM   13  O4  RAP  6544      -1.771  36.119 227.297  1.00 20.00    -0.281 OA
HETATM   14  C10 RAP  6544      -1.378  34.062 228.454  1.00 20.00     0.238 C 
HETATM   15  O5  RAP  6544      -2.446  33.796 229.334  1.00 20.00    -0.343 OA
HETATM   16  C11 RAP  6544      -0.049  33.436 229.042  1.00 20.00     0.053 C 
HETATM   17  C12 RAP  6544      -0.258  31.957 229.444  1.00 20.00     0.013 C 
HETATM   18  C13 RAP  6544      -1.509  31.807 230.295  1.00 20.00     0.033 C 
HETATM   19  C14 RAP  6544      -2.735  32.495 229.701  1.00 20.00     0.128 C 
HETATM   20  C15 RAP  6544      -3.816  32.621 230.759  1.00 20.00     0.068 C 
HETATM   21  C16 RAP  6544      -4.496  31.329 231.199  1.00 20.00     0.151 C 
HETATM   22  C17 RAP  6544      -5.523  31.586 232.280  1.00 20.00    -0.055 C 
HETATM   23  C18 RAP  6544      -5.300  31.098 233.494  1.00 20.00     0.005 C 
HETATM   24  C19 RAP  6544      -6.187  31.289 234.650  1.00 20.00     0.000 C 
HETATM   25  C20 RAP  6544      -5.881  30.704 235.799  1.00 20.00    -0.000 C 
HETATM   26  C21 RAP  6544      -6.680  30.944 237.017  1.00 20.00    -0.004 C 
HETATM   27  C22 RAP  6544      -6.276  30.539 238.205  1.00 20.00    -0.022 C 
HETATM   28  C23 RAP  6544      -6.996  30.849 239.499  1.00 20.00     0.005 C 
HETATM   29  C24 RAP  6544      -5.988  31.539 240.403  1.00 20.00     0.020 C 
HETATM   30  C25 RAP  6544      -5.259  32.744 239.838  1.00 20.00     0.055 C 
HETATM   31  C26 RAP  6544      -3.985  33.022 240.623  1.00 20.00     0.162 C 
HETATM   32  O8  RAP  6544      -3.995  33.715 241.637  1.00 20.00    -0.295 OA
HETATM   33  C27 RAP  6544      -2.699  32.407 240.080  1.00 20.00     0.223 C 
HETATM   34  C28 RAP  6544      -2.024  33.261 238.959  1.00 20.00     0.183 C 
HETATM   35  C29 RAP  6544      -2.647  33.052 237.565  1.00 20.00    -0.056 C 
HETATM   36  C30 RAP  6544      -3.365  33.984 236.942  1.00 20.00    -0.010 C 
HETATM   37  C31 RAP  6544      -4.014  33.957 235.549  1.00 20.00     0.074 C 
HETATM   38  C32 RAP  6544      -3.171  34.778 234.574  1.00 20.00     0.136 C 
HETATM   39  O11 RAP  6544      -3.500  35.913 234.216  1.00 20.00    -0.297 OA
HETATM   40  C33 RAP  6544      -1.868  34.130 234.119  1.00 20.00     0.112 C 
HETATM   41  C34 RAP  6544      -0.716  35.112 234.088  1.00 20.00     0.142 C 
HETATM   42  C43 RAP  6544       1.213  33.588 228.144  1.00 20.00     0.016 C 
HETATM   43  C44 RAP  6544      -6.765  32.383 231.846  1.00 20.00     0.046 C 
HETATM   44  C45 RAP  6544      -7.522  29.579 240.150  1.00 20.00     0.014 C 
HETATM   45  C46 RAP  6544      -6.159  33.982 239.802  1.00 20.00     0.018 C 
HETATM   46  C47 RAP  6544      -2.386  31.682 236.966  1.00 20.00     0.046 C 
HETATM   47  C48 RAP  6544      -5.427  34.556 235.647  1.00 20.00     0.022 C 
ENDROOT
BRANCH  41  48
HETATM   48  C35 RAP  6544       0.723  34.557 234.099  1.00 20.00     0.012 C 
HETATM   49  C49 RAP  6544       0.814  33.202 233.459  1.00 20.00     0.012 C 
BRANCH  48  50
HETATM   50  C36 RAP  6544       1.316  34.525 235.506  1.00 20.00     0.011 C 
BRANCH  50  51
HETATM   51  C37 RAP  6544       1.944  35.817 236.033  1.00 20.00    -0.012 C 
HETATM   52  C42 RAP  6544       3.261  35.645 236.789  1.00 20.00     0.007 C 
HETATM   53  C41 RAP  6544       3.851  36.974 237.240  1.00 20.00     0.035 C 
HETATM   54  C40 RAP  6544       2.829  37.777 238.070  1.00 20.00     0.147 C 
HETATM   55  C39 RAP  6544       1.447  37.949 237.349  1.00 20.00     0.150 C 
HETATM   56  C38 RAP  6544       0.927  36.587 236.885  1.00 20.00     0.039 C 
BRANCH  54  57
HETATM   57  O13 RAP  6544       3.369  39.065 238.355  1.00 20.00    -0.393 OA
ATOM     58  H13 RAP  6544       3.587  39.499 237.538  1.00  0.00     0.210 HD
ENDBRANCH  54  57
BRANCH  55  59
HETATM   59  O12 RAP  6544       0.490  38.458 238.242  1.00 20.00    -0.388 OA
HETATM   60  C52 RAP  6544       0.236  39.820 238.175  1.00 20.00     0.202 C 
ENDBRANCH  55  59
ENDBRANCH  50  51
ENDBRANCH  48  50
ENDBRANCH  41  48
BRANCH  34  61
HETATM   61  O10 RAP  6544      -2.138  34.640 239.339  1.00 20.00    -0.388 OA
ATOM     62  H10 RAP  6544      -1.293  35.048 239.193  1.00  0.00     0.210 HD
ENDBRANCH  34  61
BRANCH  33  63
HETATM   63  O9  RAP  6544      -1.770  32.313 241.127  1.00 20.00    -0.380 OA
HETATM   64  C51 RAP  6544      -0.438  32.336 240.746  1.00 20.00     0.202 C 
ENDBRANCH  33  63
BRANCH  14  65
HETATM   65  O6  RAP  6544      -1.623  33.501 227.161  1.00 20.00    -0.359 OA
ATOM     66  H6  RAP  6544      -0.857  33.635 226.616  1.00  0.00     0.213 HD
ENDBRANCH  14  65
BRANCH  21  67
HETATM   67  O7  RAP  6544      -5.124  30.777 230.086  1.00 20.00    -0.386 OA
HETATM   68  C50 RAP  6544      -4.671  29.526 229.677  1.00 20.00     0.202 C 
ENDBRANCH  21  67
TORSDOF 9
ENDMDL
MODEL 5
REMARK VINA RESULT:      -7.8      3.091      7.084
REMARK  9 active torsions:
REMARK  status: ('A' for Active; 'I' for Inactive)
REMARK    1  A    between atoms: C10_14  and  O6_16 
REMARK    2  A    between atoms: C16_23  and  O7_24 
REMARK    3  A    between atoms: C27_36  and  O9_37 
REMARK    4  A    between atoms: C28_38  and  O10_39 
REMARK    5  A    between atoms: C34_47  and  C35_48 
REMARK    6  A    between atoms: C35_48  and  C36_49 
REMARK    7  A    between atoms: C36_49  and  C37_50 
REMARK    8  A    between atoms: C39_52  and  O12_53 
REMARK    9  A    between atoms: C40_54  and  O13_55 
ROOT
HETATM    1  C1  RAP  6544      -3.631  30.937 231.738  1.00 20.00     0.282 C 
HETATM    2  O1  RAP  6544      -3.668  32.242 232.303  1.00 20.00    -0.314 OA
HETATM    3  O2  RAP  6544      -3.581  29.977 232.505  1.00 20.00    -0.263 OA
HETATM    4  C2  RAP  6544      -3.692  30.704 230.229  1.00 20.00     0.187 C 
HETATM    5  C3  RAP  6544      -2.679  29.653 229.797  1.00 20.00     0.035 C 
HETATM    6  C4  RAP  6544      -1.245  30.161 229.776  1.00 20.00     0.004 C 
HETATM    7  C5  RAP  6544      -1.192  31.397 228.897  1.00 20.00     0.020 C 
HETATM    8  C6  RAP  6544      -2.125  32.452 229.405  1.00 20.00     0.127 C 
HETATM    9  N7  RAP  6544      -3.485  31.892 229.396  1.00 20.00    -0.331 N 
HETATM   10  C8  RAP  6544      -4.530  32.510 228.822  1.00 20.00     0.296 C 
HETATM   11  O3  RAP  6544      -5.653  32.005 228.949  1.00 20.00    -0.264 OA
HETATM   12  C9  RAP  6544      -4.394  33.661 228.016  1.00 20.00     0.278 C 
HETATM   13  O4  RAP  6544      -4.152  33.527 226.810  1.00 20.00    -0.281 OA
HETATM   14  C10 RAP  6544      -4.540  35.086 228.582  1.00 20.00     0.238 C 
HETATM   15  O5  RAP  6544      -3.335  35.340 229.270  1.00 20.00    -0.343 OA
HETATM   16  C11 RAP  6544      -5.755  35.243 229.584  1.00 20.00     0.053 C 
HETATM   17  C12 RAP  6544      -5.672  36.579 230.359  1.00 20.00     0.013 C 
HETATM   18  C13 RAP  6544      -4.282  36.769 230.948  1.00 20.00     0.033 C 
HETATM   19  C14 RAP  6544      -3.158  36.534 229.942  1.00 20.00     0.128 C 
HETATM   20  C15 RAP  6544      -1.839  36.375 230.677  1.00 20.00     0.068 C 
HETATM   21  C16 RAP  6544      -1.269  37.626 231.336  1.00 20.00     0.151 C 
HETATM   22  C17 RAP  6544       0.025  37.325 232.063  1.00 20.00    -0.055 C 
HETATM   23  C18 RAP  6544       0.045  37.427 233.386  1.00 20.00     0.005 C 
HETATM   24  C19 RAP  6544       1.213  37.141 234.231  1.00 20.00     0.000 C 
HETATM   25  C20 RAP  6544       1.124  37.332 235.539  1.00 20.00    -0.000 C 
HETATM   26  C21 RAP  6544       2.230  36.965 236.444  1.00 20.00    -0.004 C 
HETATM   27  C22 RAP  6544       2.084  36.956 237.755  1.00 20.00    -0.022 C 
HETATM   28  C23 RAP  6544       3.145  36.486 238.725  1.00 20.00     0.005 C 
HETATM   29  C24 RAP  6544       2.511  35.390 239.564  1.00 20.00     0.020 C 
HETATM   30  C25 RAP  6544       1.850  34.243 238.823  1.00 20.00     0.055 C 
HETATM   31  C26 RAP  6544       0.870  33.508 239.728  1.00 20.00     0.162 C 
HETATM   32  O8  RAP  6544       1.237  32.597 240.465  1.00 20.00    -0.295 OA
HETATM   33  C27 RAP  6544      -0.588  33.952 239.662  1.00 20.00     0.223 C 
HETATM   34  C28 RAP  6544      -1.390  33.290 238.495  1.00 20.00     0.183 C 
HETATM   35  C29 RAP  6544      -1.176  33.978 237.132  1.00 20.00    -0.056 C 
HETATM   36  C30 RAP  6544      -0.509  33.411 236.129  1.00 20.00    -0.010 C 
HETATM   37  C31 RAP  6544      -0.244  33.932 234.708  1.00 20.00     0.074 C 
HETATM   38  C32 RAP  6544      -1.175  33.227 233.721  1.00 20.00     0.136 C 
HETATM   39  O11 RAP  6544      -0.783  32.319 232.983  1.00 20.00    -0.297 OA
HETATM   40  C33 RAP  6544      -2.631  33.677 233.751  1.00 20.00     0.112 C 
HETATM   41  C34 RAP  6544      -3.596  32.513 233.659  1.00 20.00     0.142 C 
HETATM   42  C43 RAP  6544      -7.165  35.061 228.953  1.00 20.00     0.016 C 
HETATM   43  C44 RAP  6544       1.220  36.950 231.171  1.00 20.00     0.046 C 
HETATM   44  C45 RAP  6544       3.625  37.629 239.606  1.00 20.00     0.014 C 
HETATM   45  C46 RAP  6544       2.884  33.276 238.240  1.00 20.00     0.018 C 
HETATM   46  C47 RAP  6544      -1.780  35.366 237.034  1.00 20.00     0.046 C 
HETATM   47  C48 RAP  6544       1.220  33.642 234.338  1.00 20.00     0.022 C 
ENDROOT
BRANCH  41  48
HETATM   48  C35 RAP  6544      -5.051  32.727 234.123  1.00 20.00     0.012 C 
HETATM   49  C49 RAP  6544      -5.974  33.032 232.979  1.00 20.00     0.012 C 
BRANCH  48  50
HETATM   50  C36 RAP  6544      -5.159  33.804 235.200  1.00 20.00     0.011 C 
BRANCH  50  51
HETATM   51  C37 RAP  6544      -5.682  35.177 234.770  1.00 20.00    -0.012 C 
HETATM   52  C42 RAP  6544      -4.857  36.372 235.249  1.00 20.00     0.007 C 
HETATM   53  C41 RAP  6544      -5.407  37.698 234.743  1.00 20.00     0.035 C 
HETATM   54  C40 RAP  6544      -6.895  37.856 235.119  1.00 20.00     0.147 C 
HETATM   55  C39 RAP  6544      -7.776  36.636 234.679  1.00 20.00     0.150 C 
HETATM   56  C38 RAP  6544      -7.151  35.333 235.181  1.00 20.00     0.039 C 
BRANCH  54  57
HETATM   57  O13 RAP  6544      -7.405  39.042 234.513  1.00 20.00    -0.393 OA
ATOM     58  H13 RAP  6544      -8.077  38.805 233.884  1.00  0.00     0.210 HD
ENDBRANCH  54  57
BRANCH  55  59
HETATM   59  O12 RAP  6544      -9.051  36.718 235.264  1.00 20.00    -0.388 OA
HETATM   60  C52 RAP  6544      -9.973  35.753 234.887  1.00 20.00     0.202 C 
ENDBRANCH  55  59
ENDBRANCH  50  51
ENDBRANCH  48  50
ENDBRANCH  41  48
BRANCH  34  61
HETATM   61  O10 RAP  6544      -0.981  31.917 238.416  1.00 20.00    -0.388 OA
ATOM     62  H10 RAP  6544      -0.636  31.771 237.542  1.00  0.00     0.210 HD
ENDBRANCH  34  61
BRANCH  33  63
HETATM   63  O9  RAP  6544      -1.226  33.575 240.852  1.00 20.00    -0.380 OA
HETATM   64  C51 RAP  6544      -2.611  33.575 240.813  1.00 20.00     0.202 C 
ENDBRANCH  33  63
BRANCH  14  65
HETATM   65  O6  RAP  6544      -4.714  35.999 227.495  1.00 20.00    -0.359 OA
ATOM     66  H6  RAP  6544      -4.827  36.875 227.843  1.00  0.00     0.213 HD
ENDBRANCH  14  65
BRANCH  21  67
HETATM   67  O7  RAP  6544      -1.031  38.564 230.337  1.00 20.00    -0.386 OA
HETATM   68  C50 RAP  6544      -1.557  39.836 230.544  1.00 20.00     0.202 C 
ENDBRANCH  21  67
TORSDOF 9
ENDMDL
MODEL 6
REMARK VINA RESULT:      -7.6      3.162     11.067
REMARK  9 active torsions:
REMARK  status: ('A' for Active; 'I' for Inactive)
REMARK    1  A    between atoms: C10_14  and  O6_16 
REMARK    2  A    between atoms: C16_23  and  O7_24 
REMARK    3  A    between atoms: C27_36  and  O9_37 
REMARK    4  A    between atoms: C28_38  and  O10_39 
REMARK    5  A    between atoms: C34_47  and  C35_48 
REMARK    6  A    between atoms: C35_48  and  C36_49 
REMARK    7  A    between atoms: C36_49  and  C37_50 
REMARK    8  A    between atoms: C39_52  and  O12_53 
REMARK    9  A    between atoms: C40_54  and  O13_55 
ROOT
HETATM    1  C1  RAP  6544      -1.578  32.092 235.013  1.00 20.00     0.282 C 
HETATM    2  O1  RAP  6544      -0.822  32.881 234.101  1.00 20.00    -0.314 OA
HETATM    3  O2  RAP  6544      -1.675  30.887 234.791  1.00 20.00    -0.263 OA
HETATM    4  C2  RAP  6544      -2.228  32.692 236.259  1.00 20.00     0.187 C 
HETATM    5  C3  RAP  6544      -3.644  32.168 236.444  1.00 20.00     0.035 C 
HETATM    6  C4  RAP  6544      -4.652  32.782 235.485  1.00 20.00     0.004 C 
HETATM    7  C5  RAP  6544      -4.582  34.292 235.627  1.00 20.00     0.020 C 
HETATM    8  C6  RAP  6544      -3.199  34.790 235.340  1.00 20.00     0.127 C 
HETATM    9  N7  RAP  6544      -2.285  34.156 236.303  1.00 20.00    -0.331 N 
HETATM   10  C8  RAP  6544      -1.413  34.849 237.053  1.00 20.00     0.296 C 
HETATM   11  O3  RAP  6544      -0.620  34.218 237.764  1.00 20.00    -0.264 OA
HETATM   12  C9  RAP  6544      -1.414  36.258 237.128  1.00 20.00     0.278 C 
HETATM   13  O4  RAP  6544      -2.154  36.817 237.947  1.00 20.00    -0.281 OA
HETATM   14  C10 RAP  6544      -0.522  37.133 236.228  1.00 20.00     0.238 C 
HETATM   15  O5  RAP  6544      -1.148  37.130 234.965  1.00 20.00    -0.343 OA
HETATM   16  C11 RAP  6544       0.954  36.580 236.078  1.00 20.00     0.053 C 
HETATM   17  C12 RAP  6544       1.707  37.298 234.934  1.00 20.00     0.013 C 
HETATM   18  C13 RAP  6544       0.862  37.318 233.669  1.00 20.00     0.033 C 
HETATM   19  C14 RAP  6544      -0.569  37.795 233.901  1.00 20.00     0.128 C 
HETATM   20  C15 RAP  6544      -1.429  37.436 232.703  1.00 20.00     0.068 C 
HETATM   21  C16 RAP  6544      -1.161  38.204 231.413  1.00 20.00     0.151 C 
HETATM   22  C17 RAP  6544      -2.057  37.727 230.290  1.00 20.00    -0.055 C 
HETATM   23  C18 RAP  6544      -1.499  37.112 229.255  1.00 20.00     0.005 C 
HETATM   24  C19 RAP  6544      -2.238  36.568 228.106  1.00 20.00     0.000 C 
HETATM   25  C20 RAP  6544      -1.561  36.022 227.106  1.00 20.00    -0.000 C 
HETATM   26  C21 RAP  6544      -2.255  35.371 225.978  1.00 20.00    -0.004 C 
HETATM   27  C22 RAP  6544      -1.606  34.649 225.085  1.00 20.00    -0.022 C 
HETATM   28  C23 RAP  6544      -2.275  33.871 223.973  1.00 20.00     0.005 C 
HETATM   29  C24 RAP  6544      -1.825  32.428 224.121  1.00 20.00     0.020 C 
HETATM   30  C25 RAP  6544      -2.011  31.778 225.479  1.00 20.00     0.055 C 
HETATM   31  C26 RAP  6544      -1.110  30.560 225.625  1.00 20.00     0.162 C 
HETATM   32  O8  RAP  6544      -1.463  29.450 225.234  1.00 20.00    -0.295 OA
HETATM   33  C27 RAP  6544       0.245  30.786 226.289  1.00 20.00     0.223 C 
HETATM   34  C28 RAP  6544       0.188  30.751 227.850  1.00 20.00     0.183 C 
HETATM   35  C29 RAP  6544      -0.280  32.078 228.480  1.00 20.00    -0.056 C 
HETATM   36  C30 RAP  6544      -1.456  32.220 229.087  1.00 20.00    -0.010 C 
HETATM   37  C31 RAP  6544      -2.054  33.445 229.797  1.00 20.00     0.074 C 
HETATM   38  C32 RAP  6544      -1.947  33.262 231.311  1.00 20.00     0.136 C 
HETATM   39  O11 RAP  6544      -2.917  32.943 232.004  1.00 20.00    -0.297 OA
HETATM   40  C33 RAP  6544      -0.553  33.442 231.901  1.00 20.00     0.112 C 
HETATM   41  C34 RAP  6544      -0.230  32.396 232.947  1.00 20.00     0.142 C 
HETATM   42  C43 RAP  6544       1.802  36.587 237.383  1.00 20.00     0.016 C 
HETATM   43  C44 RAP  6544      -3.554  38.036 230.454  1.00 20.00     0.046 C 
HETATM   44  C45 RAP  6544      -1.882  34.420 222.610  1.00 20.00     0.014 C 
HETATM   45  C46 RAP  6544      -3.474  31.407 225.732  1.00 20.00     0.018 C 
HETATM   46  C47 RAP  6544       0.711  33.218 228.335  1.00 20.00     0.046 C 
HETATM   47  C48 RAP  6544      -3.531  33.581 229.393  1.00 20.00     0.022 C 
ENDROOT
BRANCH  41  48
HETATM   48  C35 RAP  6544       1.249  32.147 233.306  1.00 20.00     0.012 C 
HETATM   49  C49 RAP  6544       1.581  30.684 233.363  1.00 20.00     0.012 C 
BRANCH  48  50
HETATM   50  C36 RAP  6544       1.650  32.839 234.606  1.00 20.00     0.011 C 
BRANCH  50  51
HETATM   51  C37 RAP  6544       2.388  31.999 235.651  1.00 20.00    -0.012 C 
HETATM   52  C42 RAP  6544       1.573  30.868 236.277  1.00 20.00     0.007 C 
HETATM   53  C41 RAP  6544       2.384  30.046 237.268  1.00 20.00     0.035 C 
HETATM   54  C40 RAP  6544       3.013  30.949 238.349  1.00 20.00     0.147 C 
HETATM   55  C39 RAP  6544       3.831  32.147 237.753  1.00 20.00     0.150 C 
HETATM   56  C38 RAP  6544       2.977  32.908 236.736  1.00 20.00     0.039 C 
BRANCH  54  57
HETATM   57  O13 RAP  6544       3.871  30.163 239.172  1.00 20.00    -0.393 OA
ATOM     58  H13 RAP  6544       4.478  29.683 238.620  1.00  0.00     0.210 HD
ENDBRANCH  54  57
BRANCH  55  59
HETATM   59  O12 RAP  6544       4.160  33.065 238.764  1.00 20.00    -0.388 OA
HETATM   60  C52 RAP  6544       3.103  33.622 239.468  1.00 20.00     0.202 C 
ENDBRANCH  55  59
ENDBRANCH  50  51
ENDBRANCH  48  50
ENDBRANCH  41  48
BRANCH  34  61
HETATM   61  O10 RAP  6544      -0.707  29.694 228.226  1.00 20.00    -0.388 OA
ATOM     62  H10 RAP  6544      -1.569  29.919 227.898  1.00  0.00     0.210 HD
ENDBRANCH  34  61
BRANCH  33  63
HETATM   63  O9  RAP  6544       1.114  29.757 225.896  1.00 20.00    -0.380 OA
HETATM   64  C51 RAP  6544       1.970  30.065 224.852  1.00 20.00     0.202 C 
ENDBRANCH  33  63
BRANCH  14  65
HETATM   65  O6  RAP  6544      -0.470  38.454 236.774  1.00 20.00    -0.359 OA
ATOM     66  H6  RAP  6544      -0.294  39.071 236.073  1.00  0.00     0.213 HD
ENDBRANCH  14  65
BRANCH  21  67
HETATM   67  O7  RAP  6544      -1.406  39.551 231.661  1.00 20.00    -0.386 OA
HETATM   68  C50 RAP  6544      -1.230  40.420 230.587  1.00 20.00     0.202 C 
ENDBRANCH  21  67
TORSDOF 9
ENDMDL
MODEL 7
REMARK VINA RESULT:      -7.5      4.040     10.893
REMARK  9 active torsions:
REMARK  status: ('A' for Active; 'I' for Inactive)
REMARK    1  A    between atoms: C10_14  and  O6_16 
REMARK    2  A    between atoms: C16_23  and  O7_24 
REMARK    3  A    between atoms: C27_36  and  O9_37 
REMARK    4  A    between atoms: C28_38  and  O10_39 
REMARK    5  A    between atoms: C34_47  and  C35_48 
REMARK    6  A    between atoms: C35_48  and  C36_49 
REMARK    7  A    between atoms: C36_49  and  C37_50 
REMARK    8  A    between atoms: C39_52  and  O12_53 
REMARK    9  A    between atoms: C40_54  and  O13_55 
ROOT
HETATM    1  C1  RAP  6544       1.105  33.135 237.470  1.00 20.00     0.282 C 
HETATM    2  O1  RAP  6544      -0.121  33.714 237.037  1.00 20.00    -0.314 OA
HETATM    3  O2  RAP  6544       2.152  33.602 237.026  1.00 20.00    -0.263 OA
HETATM    4  C2  RAP  6544       1.150  31.995 238.486  1.00 20.00     0.187 C 
HETATM    5  C3  RAP  6544       2.142  30.922 238.061  1.00 20.00     0.035 C 
HETATM    6  C4  RAP  6544       1.641  30.043 236.925  1.00 20.00     0.004 C 
HETATM    7  C5  RAP  6544       0.306  29.450 237.338  1.00 20.00     0.020 C 
HETATM    8  C6  RAP  6544      -0.682  30.531 237.653  1.00 20.00     0.127 C 
HETATM    9  N7  RAP  6544      -0.131  31.335 238.755  1.00 20.00    -0.331 N 
HETATM   10  C8  RAP  6544      -0.819  31.616 239.873  1.00 20.00     0.296 C 
HETATM   11  O3  RAP  6544      -0.306  32.380 240.702  1.00 20.00    -0.264 OA
HETATM   12  C9  RAP  6544      -2.061  31.020 240.183  1.00 20.00     0.278 C 
HETATM   13  O4  RAP  6544      -2.075  29.928 240.766  1.00 20.00    -0.281 OA
HETATM   14  C10 RAP  6544      -3.405  31.679 239.824  1.00 20.00     0.238 C 
HETATM   15  O5  RAP  6544      -3.568  31.465 238.439  1.00 20.00    -0.343 OA
HETATM   16  C11 RAP  6544      -3.441  33.234 240.118  1.00 20.00     0.053 C 
HETATM   17  C12 RAP  6544      -4.671  33.900 239.458  1.00 20.00     0.013 C 
HETATM   18  C13 RAP  6544      -4.783  33.486 237.999  1.00 20.00     0.033 C 
HETATM   19  C14 RAP  6544      -4.670  31.980 237.783  1.00 20.00     0.128 C 
HETATM   20  C15 RAP  6544      -4.417  31.691 236.314  1.00 20.00     0.068 C 
HETATM   21  C16 RAP  6544      -5.575  31.951 235.357  1.00 20.00     0.151 C 
HETATM   22  C17 RAP  6544      -5.182  31.659 233.924  1.00 20.00    -0.055 C 
HETATM   23  C18 RAP  6544      -5.120  32.670 233.067  1.00 20.00     0.005 C 
HETATM   24  C19 RAP  6544      -4.728  32.549 231.655  1.00 20.00     0.000 C 
HETATM   25  C20 RAP  6544      -4.757  33.628 230.885  1.00 20.00    -0.000 C 
HETATM   26  C21 RAP  6544      -4.277  33.584 229.490  1.00 20.00    -0.004 C 
HETATM   27  C22 RAP  6544      -4.107  34.682 228.778  1.00 20.00    -0.022 C 
HETATM   28  C23 RAP  6544      -3.517  34.708 227.385  1.00 20.00     0.005 C 
HETATM   29  C24 RAP  6544      -2.327  35.652 227.435  1.00 20.00     0.020 C 
HETATM   30  C25 RAP  6544      -1.283  35.397 228.506  1.00 20.00     0.055 C 
HETATM   31  C26 RAP  6544      -0.445  36.644 228.753  1.00 20.00     0.162 C 
HETATM   32  O8  RAP  6544       0.551  36.891 228.078  1.00 20.00    -0.295 OA
HETATM   33  C27 RAP  6544      -0.899  37.560 229.884  1.00 20.00     0.223 C 
HETATM   34  C28 RAP  6544      -0.389  37.113 231.292  1.00 20.00     0.183 C 
HETATM   35  C29 RAP  6544      -1.238  35.997 231.930  1.00 20.00    -0.056 C 
HETATM   36  C30 RAP  6544      -0.798  34.751 232.092  1.00 20.00    -0.010 C 
HETATM   37  C31 RAP  6544      -1.489  33.541 232.740  1.00 20.00     0.074 C 
HETATM   38  C32 RAP  6544      -0.915  33.310 234.138  1.00 20.00     0.136 C 
HETATM   39  O11 RAP  6544      -0.103  32.410 234.374  1.00 20.00    -0.297 OA
HETATM   40  C33 RAP  6544      -1.363  34.300 235.208  1.00 20.00     0.112 C 
HETATM   41  C34 RAP  6544      -0.222  34.733 236.105  1.00 20.00     0.142 C 
HETATM   42  C43 RAP  6544      -3.343  33.628 241.621  1.00 20.00     0.016 C 
HETATM   43  C44 RAP  6544      -4.916  30.181 233.593  1.00 20.00     0.046 C 
HETATM   44  C45 RAP  6544      -4.541  35.186 226.367  1.00 20.00     0.014 C 
HETATM   45  C46 RAP  6544      -0.392  34.203 228.153  1.00 20.00     0.018 C 
HETATM   46  C47 RAP  6544      -2.631  36.434 232.345  1.00 20.00     0.046 C 
HETATM   47  C48 RAP  6544      -1.243  32.301 231.866  1.00 20.00     0.022 C 
ENDROOT
BRANCH  41  48
HETATM   48  C35 RAP  6544      -0.382  36.033 236.920  1.00 20.00     0.012 C 
HETATM   49  C49 RAP  6544      -1.768  36.600 236.819  1.00 20.00     0.012 C 
BRANCH  48  50
HETATM   50  C36 RAP  6544       0.656  37.085 236.534  1.00 20.00     0.011 C 
BRANCH  50  51
HETATM   51  C37 RAP  6544       1.543  37.639 237.651  1.00 20.00    -0.012 C 
HETATM   52  C42 RAP  6544       2.688  38.542 237.192  1.00 20.00     0.007 C 
HETATM   53  C41 RAP  6544       3.496  39.095 238.358  1.00 20.00     0.035 C 
HETATM   54  C40 RAP  6544       4.008  37.956 239.262  1.00 20.00     0.147 C 
HETATM   55  C39 RAP  6544       2.873  36.980 239.730  1.00 20.00     0.150 C 
HETATM   56  C38 RAP  6544       2.073  36.492 238.520  1.00 20.00     0.039 C 
BRANCH  54  57
HETATM   57  O13 RAP  6544       4.640  38.520 240.410  1.00 20.00    -0.393 OA
ATOM     58  H13 RAP  6544       4.227  39.351 240.614  1.00  0.00     0.210 HD
ENDBRANCH  54  57
BRANCH  55  59
HETATM   59  O12 RAP  6544       3.427  35.837 240.329  1.00 20.00    -0.388 OA
HETATM   60  C52 RAP  6544       2.582  34.751 240.502  1.00 20.00     0.202 C 
ENDBRANCH  55  59
ENDBRANCH  50  51
ENDBRANCH  48  50
ENDBRANCH  41  48
BRANCH  34  61
HETATM   61  O10 RAP  6544       0.965  36.665 231.138  1.00 20.00    -0.388 OA
ATOM     62  H10 RAP  6544       1.288  36.427 231.999  1.00  0.00     0.210 HD
ENDBRANCH  34  61
BRANCH  33  63
HETATM   63  O9  RAP  6544      -0.380  38.844 229.658  1.00 20.00    -0.380 OA
HETATM   64  C51 RAP  6544      -1.228  39.894 229.968  1.00 20.00     0.202 C 
ENDBRANCH  33  63
BRANCH  14  65
HETATM   65  O6  RAP  6544      -4.446  31.041 240.569  1.00 20.00    -0.359 OA
ATOM     66  H6  RAP  6544      -4.473  30.120 240.335  1.00  0.00     0.213 HD
ENDBRANCH  14  65
BRANCH  21  67
HETATM   67  O7  RAP  6544      -6.629  31.121 235.726  1.00 20.00    -0.386 OA
HETATM   68  C50 RAP  6544      -7.860  31.738 235.931  1.00 20.00     0.202 C 
ENDBRANCH  21  67
TORSDOF 9
ENDMDL
MODEL 8
REMARK VINA RESULT:      -7.3      3.376      9.649
REMARK  9 active torsions:
REMARK  status: ('A' for Active; 'I' for Inactive)
REMARK    1  A    between atoms: C10_14  and  O6_16 
REMARK    2  A    between atoms: C16_23  and  O7_24 
REMARK    3  A    between atoms: C27_36  and  O9_37 
REMARK    4  A    between atoms: C28_38  and  O10_39 
REMARK    5  A    between atoms: C34_47  and  C35_48 
REMARK    6  A    between atoms: C35_48  and  C36_49 
REMARK    7  A    between atoms: C36_49  and  C37_50 
REMARK    8  A    between atoms: C39_52  and  O12_53 
REMARK    9  A    between atoms: C40_54  and  O13_55 
ROOT
HETATM    1  C1  RAP  6544       1.256  32.953 235.070  1.00 20.00     0.282 C 
HETATM    2  O1  RAP  6544       0.236  33.552 234.279  1.00 20.00    -0.314 OA
HETATM    3  O2  RAP  6544       2.378  32.844 234.579  1.00 20.00    -0.263 OA
HETATM    4  C2  RAP  6544       1.004  32.487 236.503  1.00 20.00     0.187 C 
HETATM    5  C3  RAP  6544       1.630  31.123 236.753  1.00 20.00     0.035 C 
HETATM    6  C4  RAP  6544       0.858  29.973 236.123  1.00 20.00     0.004 C 
HETATM    7  C5  RAP  6544      -0.577  30.039 236.614  1.00 20.00     0.020 C 
HETATM    8  C6  RAP  6544      -1.199  31.356 236.265  1.00 20.00     0.127 C 
HETATM    9  N7  RAP  6544      -0.403  32.413 236.907  1.00 20.00    -0.331 N 
HETATM   10  C8  RAP  6544      -0.943  33.375 237.673  1.00 20.00     0.296 C 
HETATM   11  O3  RAP  6544      -0.203  34.276 238.091  1.00 20.00    -0.264 OA
HETATM   12  C9  RAP  6544      -2.292  33.363 238.086  1.00 20.00     0.278 C 
HETATM   13  O4  RAP  6544      -2.602  32.743 239.112  1.00 20.00    -0.281 OA
HETATM   14  C10 RAP  6544      -3.401  34.096 237.308  1.00 20.00     0.238 C 
HETATM   15  O5  RAP  6544      -3.665  33.288 236.183  1.00 20.00    -0.343 OA
HETATM   16  C11 RAP  6544      -2.977  35.542 236.823  1.00 20.00     0.053 C 
HETATM   17  C12 RAP  6544      -3.983  36.104 235.792  1.00 20.00     0.013 C 
HETATM   18  C13 RAP  6544      -4.258  35.080 234.702  1.00 20.00     0.033 C 
HETATM   19  C14 RAP  6544      -4.592  33.692 235.241  1.00 20.00     0.128 C 
HETATM   20  C15 RAP  6544      -4.483  32.669 234.125  1.00 20.00     0.068 C 
HETATM   21  C16 RAP  6544      -5.548  32.729 233.035  1.00 20.00     0.151 C 
HETATM   22  C17 RAP  6544      -5.305  31.684 231.968  1.00 20.00    -0.055 C 
HETATM   23  C18 RAP  6544      -4.982  32.091 230.747  1.00 20.00     0.005 C 
HETATM   24  C19 RAP  6544      -4.689  31.198 229.616  1.00 20.00     0.000 C 
HETATM   25  C20 RAP  6544      -4.432  31.727 228.429  1.00 20.00    -0.000 C 
HETATM   26  C21 RAP  6544      -4.032  30.884 227.286  1.00 20.00    -0.004 C 
HETATM   27  C22 RAP  6544      -3.576  31.404 226.162  1.00 20.00    -0.022 C 
HETATM   28  C23 RAP  6544      -3.051  30.590 225.000  1.00 20.00     0.005 C 
HETATM   29  C24 RAP  6544      -1.639  31.080 224.729  1.00 20.00     0.020 C 
HETATM   30  C25 RAP  6544      -0.677  31.110 225.903  1.00 20.00     0.055 C 
HETATM   31  C26 RAP  6544       0.493  32.042 225.620  1.00 20.00     0.162 C 
HETATM   32  O8  RAP  6544       1.495  31.652 225.026  1.00 20.00    -0.295 OA
HETATM   33  C27 RAP  6544       0.361  33.476 226.122  1.00 20.00     0.223 C 
HETATM   34  C28 RAP  6544       0.767  33.653 227.620  1.00 20.00     0.183 C 
HETATM   35  C29 RAP  6544      -0.346  33.263 228.612  1.00 20.00    -0.056 C 
HETATM   36  C30 RAP  6544      -0.279  32.188 229.395  1.00 20.00    -0.010 C 
HETATM   37  C31 RAP  6544      -1.268  31.683 230.457  1.00 20.00     0.074 C 
HETATM   38  C32 RAP  6544      -0.738  32.018 231.851  1.00 20.00     0.136 C 
HETATM   39  O11 RAP  6544      -0.213  31.167 232.575  1.00 20.00    -0.297 OA
HETATM   40  C33 RAP  6544      -0.845  33.481 232.265  1.00 20.00     0.112 C 
HETATM   41  C34 RAP  6544       0.402  33.973 232.971  1.00 20.00     0.142 C 
HETATM   42  C43 RAP  6544      -2.718  36.575 237.958  1.00 20.00     0.016 C 
HETATM   43  C44 RAP  6544      -5.488  30.223 232.410  1.00 20.00     0.046 C 
HETATM   44  C45 RAP  6544      -3.927  30.766 223.769  1.00 20.00     0.014 C 
HETATM   45  C46 RAP  6544      -0.182  29.706 226.261  1.00 20.00     0.018 C 
HETATM   46  C47 RAP  6544      -1.538  34.202 228.610  1.00 20.00     0.046 C 
HETATM   47  C48 RAP  6544      -1.420  30.160 230.310  1.00 20.00     0.022 C 
ENDROOT
BRANCH  41  48
HETATM   48  C35 RAP  6544       0.652  35.493 233.046  1.00 20.00     0.012 C 
HETATM   49  C49 RAP  6544      -0.038  36.124 234.221  1.00 20.00     0.012 C 
BRANCH  48  50
HETATM   50  C36 RAP  6544       0.265  36.205 231.752  1.00 20.00     0.011 C 
BRANCH  50  51
HETATM   51  C37 RAP  6544      -0.847  37.253 231.832  1.00 20.00    -0.012 C 
HETATM   52  C42 RAP  6544      -2.272  36.700 231.805  1.00 20.00     0.007 C 
HETATM   53  C41 RAP  6544      -3.323  37.794 231.938  1.00 20.00     0.035 C 
HETATM   54  C40 RAP  6544      -3.123  38.883 230.864  1.00 20.00     0.147 C 
HETATM   55  C39 RAP  6544      -1.664  39.455 230.829  1.00 20.00     0.150 C 
HETATM   56  C38 RAP  6544      -0.655  38.308 230.736  1.00 20.00     0.039 C 
BRANCH  54  57
HETATM   57  O13 RAP  6544      -4.037  39.950 231.107  1.00 20.00    -0.393 OA
ATOM     58  H13 RAP  6544      -3.556  40.703 231.431  1.00  0.00     0.210 HD
ENDBRANCH  54  57
BRANCH  55  59
HETATM   59  O12 RAP  6544      -1.476  40.245 229.682  1.00 20.00    -0.388 OA
HETATM   60  C52 RAP  6544      -1.188  41.586 229.888  1.00 20.00     0.202 C 
ENDBRANCH  55  59
ENDBRANCH  50  51
ENDBRANCH  48  50
ENDBRANCH  41  48
BRANCH  34  61
HETATM   61  O10 RAP  6544       1.928  32.843 227.851  1.00 20.00    -0.388 OA
ATOM     62  H10 RAP  6544       2.563  33.377 228.314  1.00  0.00     0.210 HD
ENDBRANCH  34  61
BRANCH  33  63
HETATM   63  O9  RAP  6544       1.221  34.294 225.374  1.00 20.00    -0.380 OA
HETATM   64  C51 RAP  6544       0.610  35.074 224.405  1.00 20.00     0.202 C 
ENDBRANCH  33  63
BRANCH  14  65
HETATM   65  O6  RAP  6544      -4.555  34.207 238.144  1.00 20.00    -0.359 OA
ATOM     66  H6  RAP  6544      -4.409  33.709 238.940  1.00  0.00     0.213 HD
ENDBRANCH  14  65
BRANCH  21  67
HETATM   67  O7  RAP  6544      -6.784  32.502 233.634  1.00 20.00    -0.386 OA
HETATM   68  C50 RAP  6544      -7.817  33.358 233.265  1.00 20.00     0.202 C 
ENDBRANCH  21  67
TORSDOF 9
ENDMDL
MODEL 9
REMARK VINA RESULT:      -7.2      3.534      8.629
REMARK  9 active torsions:
REMARK  status: ('A' for Active; 'I' for Inactive)
REMARK    1  A    between atoms: C10_14  and  O6_16 
REMARK    2  A    between atoms: C16_23  and  O7_24 
REMARK    3  A    between atoms: C27_36  and  O9_37 
REMARK    4  A    between atoms: C28_38  and  O10_39 
REMARK    5  A    between atoms: C34_47  and  C35_48 
REMARK    6  A    between atoms: C35_48  and  C36_49 
REMARK    7  A    between atoms: C36_49  and  C37_50 
REMARK    8  A    between atoms: C39_52  and  O12_53 
REMARK    9  A    between atoms: C40_54  and  O13_55 
ROOT
HETATM    1  C1  RAP  6544      -3.285  30.702 232.550  1.00 20.00     0.282 C 
HETATM    2  O1  RAP  6544      -3.367  32.009 233.105  1.00 20.00    -0.314 OA
HETATM    3  O2  RAP  6544      -3.154  29.753 233.321  1.00 20.00    -0.263 OA
HETATM    4  C2  RAP  6544      -3.392  30.451 231.047  1.00 20.00     0.187 C 
HETATM    5  C3  RAP  6544      -2.344  29.450 230.583  1.00 20.00     0.035 C 
HETATM    6  C4  RAP  6544      -0.940  30.031 230.500  1.00 20.00     0.004 C 
HETATM    7  C5  RAP  6544      -0.986  31.259 229.610  1.00 20.00     0.020 C 
HETATM    8  C6  RAP  6544      -1.952  32.270 230.146  1.00 20.00     0.127 C 
HETATM    9  N7  RAP  6544      -3.281  31.639 230.196  1.00 20.00    -0.331 N 
HETATM   10  C8  RAP  6544      -4.378  32.197 229.659  1.00 20.00     0.296 C 
HETATM   11  O3  RAP  6544      -5.468  31.635 229.835  1.00 20.00    -0.264 OA
HETATM   12  C9  RAP  6544      -4.334  33.346 228.840  1.00 20.00     0.278 C 
HETATM   13  O4  RAP  6544      -4.133  33.212 227.626  1.00 20.00    -0.281 OA
HETATM   14  C10 RAP  6544      -4.532  34.766 229.400  1.00 20.00     0.238 C 
HETATM   15  O5  RAP  6544      -3.316  35.089 230.037  1.00 20.00    -0.343 OA
HETATM   16  C11 RAP  6544      -5.713  34.870 230.448  1.00 20.00     0.053 C 
HETATM   17  C12 RAP  6544      -5.670  36.216 231.208  1.00 20.00     0.013 C 
HETATM   18  C13 RAP  6544      -4.270  36.484 231.739  1.00 20.00     0.033 C 
HETATM   19  C14 RAP  6544      -3.176  36.298 230.692  1.00 20.00     0.128 C 
HETATM   20  C15 RAP  6544      -1.822  36.215 231.375  1.00 20.00     0.068 C 
HETATM   21  C16 RAP  6544      -1.293  37.500 232.001  1.00 20.00     0.151 C 
HETATM   22  C17 RAP  6544       0.043  37.274 232.678  1.00 20.00    -0.055 C 
HETATM   23  C18 RAP  6544       0.109  37.390 233.998  1.00 20.00     0.005 C 
HETATM   24  C19 RAP  6544       1.324  37.173 234.798  1.00 20.00     0.000 C 
HETATM   25  C20 RAP  6544       1.275  37.373 236.108  1.00 20.00    -0.000 C 
HETATM   26  C21 RAP  6544       2.434  37.072 236.970  1.00 20.00    -0.004 C 
HETATM   27  C22 RAP  6544       2.340  37.070 238.286  1.00 20.00    -0.022 C 
HETATM   28  C23 RAP  6544       3.462  36.664 239.217  1.00 20.00     0.005 C 
HETATM   29  C24 RAP  6544       2.920  35.545 240.090  1.00 20.00     0.020 C 
HETATM   30  C25 RAP  6544       2.291  34.358 239.385  1.00 20.00     0.055 C 
HETATM   31  C26 RAP  6544       1.387  33.583 240.333  1.00 20.00     0.162 C 
HETATM   32  O8  RAP  6544       1.830  32.699 241.063  1.00 20.00    -0.295 OA
HETATM   33  C27 RAP  6544      -0.093  33.950 240.322  1.00 20.00     0.223 C 
HETATM   34  C28 RAP  6544      -0.905  33.236 239.193  1.00 20.00     0.183 C 
HETATM   35  C29 RAP  6544      -0.782  33.919 237.818  1.00 20.00    -0.056 C 
HETATM   36  C30 RAP  6544      -0.126  33.378 236.793  1.00 20.00    -0.010 C 
HETATM   37  C31 RAP  6544       0.056  33.898 235.359  1.00 20.00     0.074 C 
HETATM   38  C32 RAP  6544      -0.875  33.136 234.416  1.00 20.00     0.136 C 
HETATM   39  O11 RAP  6544      -0.466  32.242 233.669  1.00 20.00    -0.297 OA
HETATM   40  C33 RAP  6544      -2.351  33.510 234.500  1.00 20.00     0.112 C 
HETATM   41  C34 RAP  6544      -3.257  32.297 234.455  1.00 20.00     0.142 C 
HETATM   42  C43 RAP  6544      -7.136  34.608 229.875  1.00 20.00     0.016 C 
HETATM   43  C44 RAP  6544       1.220  36.953 231.743  1.00 20.00     0.046 C 
HETATM   44  C45 RAP  6544       3.916  37.840 240.070  1.00 20.00     0.014 C 
HETATM   45  C46 RAP  6544       3.350  33.441 238.769  1.00 20.00     0.018 C 
HETATM   46  C47 RAP  6544      -1.460  35.274 237.733  1.00 20.00     0.046 C 
HETATM   47  C48 RAP  6544       1.517  33.681 234.933  1.00 20.00     0.022 C 
ENDROOT
BRANCH  41  48
HETATM   48  C35 RAP  6544      -4.701  32.439 234.975  1.00 20.00     0.012 C 
HETATM   49  C49 RAP  6544      -5.683  32.678 233.865  1.00 20.00     0.012 C 
BRANCH  48  50
HETATM   50  C36 RAP  6544      -4.824  33.525 236.042  1.00 20.00     0.011 C 
BRANCH  50  51
HETATM   51  C37 RAP  6544      -4.637  33.101 237.501  1.00 20.00    -0.012 C 
HETATM   52  C42 RAP  6544      -4.352  31.616 237.720  1.00 20.00     0.007 C 
HETATM   53  C41 RAP  6544      -4.128  31.277 239.188  1.00 20.00     0.035 C 
HETATM   54  C40 RAP  6544      -5.315  31.754 240.050  1.00 20.00     0.147 C 
HETATM   55  C39 RAP  6544      -5.669  33.266 239.831  1.00 20.00     0.150 C 
HETATM   56  C38 RAP  6544      -5.840  33.551 238.338  1.00 20.00     0.039 C 
BRANCH  54  57
HETATM   57  O13 RAP  6544      -5.006  31.542 241.426  1.00 20.00    -0.393 OA
ATOM     58  H13 RAP  6544      -5.261  32.310 241.923  1.00  0.00     0.210 HD
ENDBRANCH  54  57
BRANCH  55  59
HETATM   59  O12 RAP  6544      -6.897  33.574 240.440  1.00 20.00    -0.388 OA
HETATM   60  C52 RAP  6544      -7.995  32.828 240.040  1.00 20.00     0.202 C 
ENDBRANCH  55  59
ENDBRANCH  50  51
ENDBRANCH  48  50
ENDBRANCH  41  48
BRANCH  34  61
HETATM   61  O10 RAP  6544      -0.429  31.885 239.108  1.00 20.00    -0.388 OA
ATOM     62  H10 RAP  6544       0.407  31.848 239.558  1.00  0.00     0.210 HD
ENDBRANCH  34  61
BRANCH  33  63
HETATM   63  O9  RAP  6544      -0.664  33.552 241.540  1.00 20.00    -0.380 OA
HETATM   64  C51 RAP  6544      -2.036  33.365 241.523  1.00 20.00     0.202 C 
ENDBRANCH  33  63
BRANCH  14  65
HETATM   65  O6  RAP  6544      -4.796  35.658 228.313  1.00 20.00    -0.359 OA
ATOM     66  H6  RAP  6544      -4.071  35.620 227.700  1.00  0.00     0.213 HD
ENDBRANCH  14  65
BRANCH  21  67
HETATM   67  O7  RAP  6544      -1.143  38.440 230.986  1.00 20.00    -0.386 OA
HETATM   68  C50 RAP  6544      -1.790  39.658 231.170  1.00 20.00     0.202 C 
ENDBRANCH  21  67
TORSDOF 9
ENDMDL
