REMARK  7 active torsions:
REMARK  status: ('A' for Active; 'I' for Inactive)
REMARK    1  A    between atoms: C2_6  and  C21_2 
REMARK       I    between atoms: C21_2  and  N2_3 
REMARK    2  A    between atoms: C3_9  and  O2_10 
REMARK    3  A    between atoms: C4_12  and  N1_13 
REMARK    4  A    between atoms: C18_17  and  O7_18 
REMARK    5  A    between atoms: C17_20  and  O6_21 
REMARK    6  A    between atoms: C13_31  and  O4_32 
REMARK    7  A    between atoms: C10_36  and  N7_37 
ROOT
HETATM    1  C2  MIY  5181     -47.289   5.228  22.464  1.00 20.00     0.116 C 
HETATM    2  C1  MIY  5181     -48.417   4.328  22.797  1.00 20.00     0.209 C 
HETATM    3  O1  MIY  5181     -48.271   3.503  23.678  1.00 20.00    -0.288 OA
HETATM    4  C3  MIY  5181     -47.497   6.223  21.549  1.00 20.00     0.108 C 
HETATM    5  C4  MIY  5181     -48.887   6.594  20.943  1.00 20.00     0.049 C 
HETATM    6  C5  MIY  5181     -50.104   5.829  21.565  1.00 20.00     0.088 C 
HETATM    7  C18 MIY  5181     -49.736   4.396  21.988  1.00 20.00     0.180 C 
HETATM    8  C17 MIY  5181     -51.019   3.756  22.558  1.00 20.00     0.097 C 
HETATM    9  C16 MIY  5181     -52.135   4.396  22.984  1.00 20.00     0.030 C 
HETATM   10  C7  MIY  5181     -52.287   5.891  22.926  1.00 20.00     0.030 C 
HETATM   11  C6  MIY  5181     -50.925   6.569  22.647  1.00 20.00     0.024 C 
HETATM   12  C15 MIY  5181     -53.227   3.571  23.546  1.00 20.00     0.194 C 
HETATM   13  O5  MIY  5181     -53.274   2.333  23.497  1.00 20.00    -0.287 OA
HETATM   14  C14 MIY  5181     -54.293   4.232  24.333  1.00 20.00     0.056 A 
HETATM   15  C9  MIY  5181     -54.135   5.560  24.720  1.00 20.00    -0.019 A 
HETATM   16  C8  MIY  5181     -52.879   6.338  24.285  1.00 20.00     0.051 C 
HETATM   17  C13 MIY  5181     -55.390   3.455  24.688  1.00 20.00     0.080 A 
HETATM   18  C12 MIY  5181     -56.402   4.020  25.461  1.00 20.00     0.039 A 
HETATM   19  C11 MIY  5181     -56.268   5.348  25.865  1.00 20.00     0.027 A 
HETATM   20  C10 MIY  5181     -55.152   6.121  25.504  1.00 20.00     0.017 A 
ENDROOT
BRANCH   1  21
HETATM   21  C21 MIY  5181     -45.967   5.036  23.136  1.00 20.00     0.256 C 
HETATM   22  N2  MIY  5181     -45.900   5.498  24.405  1.00 20.00    -0.366 N 
ATOM     23  H22 MIY  5181     -46.681   5.959  24.872  1.00  0.00     0.159 HD
ATOM     24  H21 MIY  5181     -44.998   5.367  24.863  1.00  0.00     0.159 HD
HETATM   25  O8  MIY  5181     -45.017   4.475  22.568  1.00 20.00    -0.268 OA
ENDBRANCH   1  21
BRANCH   4  26
HETATM   26  O2  MIY  5181     -46.434   6.946  21.154  1.00 20.00    -0.358 OA
ATOM     27  H2  MIY  5181     -46.578   7.637  20.518  1.00  0.00     0.217 HD
ENDBRANCH   4  26
BRANCH   7  28
HETATM   28  O7  MIY  5181     -49.501   3.634  20.794  1.00 20.00    -0.374 OA
ATOM     29  H7  MIY  5181     -50.310   3.676  20.298  1.00  0.00     0.211 HD
ENDBRANCH   7  28
BRANCH   5  30
HETATM   30  N1  MIY  5181     -48.880   6.729  19.391  1.00 20.00    -0.390 N 
HETATM   31  C19 MIY  5181     -48.404   5.584  18.570  1.00 20.00     0.149 C 
HETATM   32  C20 MIY  5181     -50.101   7.306  18.733  1.00 20.00     0.149 C 
ENDBRANCH   5  30
BRANCH   8  33
HETATM   33  O6  MIY  5181     -51.082   2.415  22.551  1.00 20.00    -0.361 OA
ATOM     34  H6  MIY  5181     -50.300   1.966  22.252  1.00  0.00     0.217 HD
ENDBRANCH   8  33
BRANCH  17  35
HETATM   35  O4  MIY  5181     -55.458   2.146  24.255  1.00 20.00    -0.360 OA
ATOM     36  H4  MIY  5181     -54.768   1.761  23.728  1.00  0.00     0.217 HD
ENDBRANCH  17  35
BRANCH  20  37
HETATM   37  N7  MIY  5181     -55.060   7.421  25.987  1.00 20.00    -0.291 NA
HETATM   38  C71 MIY  5181     -56.318   8.167  25.773  1.00 20.00     0.116 C 
HETATM   39  CN7 MIY  5181     -54.937   7.226  27.438  1.00 20.00     0.116 C 
ENDBRANCH  20  37
TORSDOF 7
