REMARK  9 active torsions:
REMARK  status: ('A' for Active; 'I' for Inactive)
REMARK    1  A    between atoms: C10_14  and  O6_16 
REMARK    2  A    between atoms: C16_23  and  O7_24 
REMARK    3  A    between atoms: C27_36  and  O9_37 
REMARK    4  A    between atoms: C28_38  and  O10_39 
REMARK    5  A    between atoms: C34_47  and  C35_48 
REMARK    6  A    between atoms: C35_48  and  C36_49 
REMARK    7  A    between atoms: C36_49  and  C37_50 
REMARK    8  A    between atoms: C39_52  and  O12_53 
REMARK    9  A    between atoms: C40_54  and  O13_55 
ROOT
HETATM    1  C1  RAP  6544     -48.170   2.584  23.244  1.00 20.00     0.282 C 
HETATM    2  O1  RAP  6544     -49.045   3.446  22.526  1.00 20.00    -0.314 OA
HETATM    3  O2  RAP  6544     -48.671   1.725  23.967  1.00 20.00    -0.263 OA
HETATM    4  C2  RAP  6544     -46.651   2.674  23.109  1.00 20.00     0.187 C 
HETATM    5  C3  RAP  6544     -45.974   2.576  24.468  1.00 20.00     0.035 C 
HETATM    6  C4  RAP  6544     -46.089   3.845  25.300  1.00 20.00     0.004 C 
HETATM    7  C5  RAP  6544     -45.549   5.001  24.478  1.00 20.00     0.020 C 
HETATM    8  C6  RAP  6544     -46.301   5.136  23.190  1.00 20.00     0.127 C 
HETATM    9  N7  RAP  6544     -46.144   3.878  22.444  1.00 20.00    -0.331 N 
HETATM   10  C8  RAP  6544     -45.738   3.829  21.165  1.00 20.00     0.296 C 
HETATM   11  O3  RAP  6544     -45.728   2.730  20.594  1.00 20.00    -0.264 OA
HETATM   12  C9  RAP  6544     -45.249   4.956  20.470  1.00 20.00     0.278 C 
HETATM   13  O4  RAP  6544     -44.049   5.245  20.561  1.00 20.00    -0.281 OA
HETATM   14  C10 RAP  6544     -46.154   5.843  19.595  1.00 20.00     0.238 C 
HETATM   15  O5  RAP  6544     -46.890   6.634  20.501  1.00 20.00    -0.343 OA
HETATM   16  C11 RAP  6544     -47.157   5.018  18.690  1.00 20.00     0.053 C 
HETATM   17  C12 RAP  6544     -48.243   5.934  18.080  1.00 20.00     0.013 C 
HETATM   18  C13 RAP  6544     -48.868   6.810  19.155  1.00 20.00     0.033 C 
HETATM   19  C14 RAP  6544     -47.842   7.520  20.034  1.00 20.00     0.128 C 
HETATM   20  C15 RAP  6544     -48.520   8.056  21.282  1.00 20.00     0.068 C 
HETATM   21  C16 RAP  6544     -49.476   9.228  21.091  1.00 20.00     0.151 C 
HETATM   22  C17 RAP  6544     -50.111   9.641  22.402  1.00 20.00    -0.055 C 
HETATM   23  C18 RAP  6544     -51.417   9.464  22.555  1.00 20.00     0.005 C 
HETATM   24  C19 RAP  6544     -52.169   9.788  23.776  1.00 20.00     0.000 C 
HETATM   25  C20 RAP  6544     -53.483   9.615  23.787  1.00 20.00    -0.000 C 
HETATM   26  C21 RAP  6544     -54.272   9.827  25.016  1.00 20.00    -0.004 C 
HETATM   27  C22 RAP  6544     -55.538   9.466  25.101  1.00 20.00    -0.022 C 
HETATM   28  C23 RAP  6544     -56.365   9.558  26.365  1.00 20.00     0.005 C 
HETATM   29  C24 RAP  6544     -56.898   8.162  26.638  1.00 20.00     0.020 C 
HETATM   30  C25 RAP  6544     -55.889   7.030  26.683  1.00 20.00     0.055 C 
HETATM   31  C26 RAP  6544     -56.574   5.686  26.478  1.00 20.00     0.162 C 
HETATM   32  O8  RAP  6544     -57.061   5.064  27.419  1.00 20.00    -0.295 OA
HETATM   33  C27 RAP  6544     -56.614   5.149  25.051  1.00 20.00     0.223 C 
HETATM   34  C28 RAP  6544     -55.314   4.388  24.634  1.00 20.00     0.183 C 
HETATM   35  C29 RAP  6544     -54.169   5.320  24.192  1.00 20.00    -0.056 C 
HETATM   36  C30 RAP  6544     -53.059   5.497  24.906  1.00 20.00    -0.010 C 
HETATM   37  C31 RAP  6544     -51.816   6.345  24.595  1.00 20.00     0.074 C 
HETATM   38  C32 RAP  6544     -50.679   5.436  24.128  1.00 20.00     0.136 C 
HETATM   39  O11 RAP  6544     -49.738   5.130  24.866  1.00 20.00    -0.297 OA
HETATM   40  C33 RAP  6544     -50.813   4.885  22.713  1.00 20.00     0.112 C 
HETATM   41  C34 RAP  6544     -50.426   3.423  22.625  1.00 20.00     0.142 C 
HETATM   42  C43 RAP  6544     -46.492   4.144  17.587  1.00 20.00     0.016 C 
HETATM   43  C44 RAP  6544     -49.160  10.265  23.437  1.00 20.00     0.046 C 
HETATM   44  C45 RAP  6544     -57.508  10.548  26.199  1.00 20.00     0.014 C 
HETATM   45  C46 RAP  6544     -55.087   7.040  27.987  1.00 20.00     0.018 C 
HETATM   46  C47 RAP  6544     -54.420   6.034  22.877  1.00 20.00     0.046 C 
HETATM   47  C48 RAP  6544     -51.393   7.093  25.870  1.00 20.00     0.022 C 
ENDROOT
BRANCH  41  48
HETATM   48  C35 RAP  6544     -50.921   2.604  21.416  1.00 20.00     0.012 C 
HETATM   49  C49 RAP  6544     -50.656   3.299  20.112  1.00 20.00     0.012 C 
BRANCH  48  50
HETATM   50  C36 RAP  6544     -52.398   2.236  21.536  1.00 20.00     0.011 C 
BRANCH  50  51
HETATM   51  C37 RAP  6544     -52.800   1.307  22.684  1.00 20.00    -0.012 C 
HETATM   52  C42 RAP  6544     -52.070  -0.035  22.727  1.00 20.00     0.007 C 
HETATM   53  C41 RAP  6544     -52.484  -0.884  23.921  1.00 20.00     0.035 C 
HETATM   54  C40 RAP  6544     -54.014  -1.076  23.956  1.00 20.00     0.147 C 
HETATM   55  C39 RAP  6544     -54.808   0.274  23.877  1.00 20.00     0.150 C 
HETATM   56  C38 RAP  6544     -54.319   1.098  22.684  1.00 20.00     0.039 C 
BRANCH  54  57
HETATM   57  O13 RAP  6544     -54.371  -1.757  25.157  1.00 20.00    -0.393 OA
ATOM     58  H13 RAP  6544     -53.890  -2.575  25.205  1.00  0.00     0.210 HD
ENDBRANCH  54  57
BRANCH  55  59
HETATM   59  O12 RAP  6544     -56.173   0.026  23.658  1.00 20.00    -0.388 OA
HETATM   60  C52 RAP  6544     -57.071   0.835  24.338  1.00 20.00     0.202 C 
ENDBRANCH  55  59
ENDBRANCH  50  51
ENDBRANCH  48  50
ENDBRANCH  41  48
BRANCH  34  61
HETATM   61  O10 RAP  6544     -54.894   3.603  25.759  1.00 20.00    -0.388 OA
ATOM     62  H10 RAP  6544     -54.104   3.140  25.506  1.00  0.00     0.210 HD
ENDBRANCH  34  61
BRANCH  33  63
HETATM   63  O9  RAP  6544     -57.668   4.229  24.947  1.00 20.00    -0.380 OA
HETATM   64  C51 RAP  6544     -58.899   4.767  24.610  1.00 20.00     0.202 C 
ENDBRANCH  33  63
BRANCH  14  65
HETATM   65  O6  RAP  6544     -45.330   6.655  18.754  1.00 20.00    -0.359 OA
ATOM     66  H6  RAP  6544     -44.728   7.150  19.297  1.00  0.00     0.213 HD
ENDBRANCH  14  65
BRANCH  21  67
HETATM   67  O7  RAP  6544     -48.746  10.294  20.574  1.00 20.00    -0.386 OA
HETATM   68  C50 RAP  6544     -49.465  11.248  19.860  1.00 20.00     0.202 C 
ENDBRANCH  21  67
TORSDOF 9
