REMARK  5 active torsions:
REMARK  status: ('A' for Active; 'I' for Inactive)
REMARK    1  A    between atoms: C1_1  and  C4_4 
REMARK    2  A    between atoms: C1_1  and  O1_6 
REMARK    3  A    between atoms: C2_2  and  C4_4 
REMARK    4  A    between atoms: C2_2  and  S1_10 
REMARK       I    between atoms: C3_3  and  N1_5 
REMARK    5  A    between atoms: C4_4  and  N1_5 
ROOT
ATOM      1  C4  UNK     1       0.523  75.318  21.814  1.00  0.00     0.191 C 
ENDROOT
BRANCH   1   2
ATOM      2  C1  UNK     1       0.184  74.155  22.703  1.00  0.00     0.164 C 
ATOM      3  O2  UNK     1       0.728  73.042  22.487  1.00  0.00    -0.648 OA
BRANCH   2   4
ATOM      4  O1  UNK     1      -0.628  74.361  23.641  1.00  0.00    -0.775 OA
ATOM      5  H5  UNK     1      -0.750  73.559  24.136  1.00  0.00     0.167 HD
ENDBRANCH   2   4
ENDBRANCH   1   2
BRANCH   1   6
ATOM      6  C2  UNK     1      -0.709  76.207  21.638  1.00  0.00     0.106 C 
BRANCH   6   7
ATOM      7  S1  UNK     1      -1.910  75.471  20.488  1.00  0.00    -0.180 SA
ATOM      8  H9  UNK     1      -2.857  76.362  20.479  1.00  0.00     0.101 HD
ENDBRANCH   6   7
ENDBRANCH   1   6
BRANCH   1   9
ATOM      9  N1  UNK     1       1.069  74.926  20.525  1.00  0.00    -0.346 N 
ATOM     10  C3  UNK     1       2.329  75.189  20.179  1.00  0.00     0.214 C 
ATOM     11  O3  UNK     1       3.276  74.613  20.410  1.00  0.00    -0.274 OA
ATOM     12  C5  UNK     1       2.757  76.635  20.099  1.00  0.00     0.117 C 
ATOM     13  H1  UNK     1       0.481  74.443  19.876  1.00  0.00     0.163 HD
ENDBRANCH   1   9
TORSDOF 5
