MODEL 1
REMARK VINA RESULT:      -7.0      0.000      0.000
REMARK  7 active torsions:
REMARK  status: ('A' for Active; 'I' for Inactive)
REMARK    1  A    between atoms: C2_6  and  C21_2 
REMARK       I    between atoms: C21_2  and  N2_3 
REMARK    2  A    between atoms: C3_9  and  O2_10 
REMARK    3  A    between atoms: C4_12  and  N1_13 
REMARK    4  A    between atoms: C18_17  and  O7_18 
REMARK    5  A    between atoms: C17_20  and  O6_21 
REMARK    6  A    between atoms: C13_31  and  O4_32 
REMARK    7  A    between atoms: C10_36  and  N7_37 
ROOT
HETATM    1  C2  MIY  5181      -1.833  42.572 227.182  1.00 20.00     0.116 C 
HETATM    2  C1  MIY  5181      -2.645  41.713 228.075  1.00 20.00     0.209 C 
HETATM    3  O1  MIY  5181      -3.775  41.418 227.739  1.00 20.00    -0.288 OA
HETATM    4  C3  MIY  5181      -0.528  42.809 227.515  1.00 20.00     0.108 C 
HETATM    5  C4  MIY  5181       0.230  42.108 228.686  1.00 20.00     0.049 C 
HETATM    6  C5  MIY  5181      -0.572  40.969 229.403  1.00 20.00     0.088 C 
HETATM    7  C18 MIY  5181      -2.083  41.258 229.444  1.00 20.00     0.180 C 
HETATM    8  C17 MIY  5181      -2.742  40.079 230.190  1.00 20.00     0.097 C 
HETATM    9  C16 MIY  5181      -2.210  38.853 230.419  1.00 20.00     0.030 C 
HETATM   10  C7  MIY  5181      -0.824  38.473 229.978  1.00 20.00     0.030 C 
HETATM   11  C6  MIY  5181      -0.263  39.514 228.980  1.00 20.00     0.024 C 
HETATM   12  C15 MIY  5181      -3.056  37.857 231.113  1.00 20.00     0.194 C 
HETATM   13  O5  MIY  5181      -4.142  38.108 231.656  1.00 20.00    -0.287 OA
HETATM   14  C14 MIY  5181      -2.663  36.430 231.072  1.00 20.00     0.056 A 
HETATM   15  C9  MIY  5181      -1.652  36.023 230.206  1.00 20.00    -0.019 A 
HETATM   16  C8  MIY  5181      -0.922  37.066 229.340  1.00 20.00     0.051 C 
HETATM   17  C13 MIY  5181      -3.378  35.555 231.883  1.00 20.00     0.080 A 
HETATM   18  C12 MIY  5181      -3.073  34.196 231.851  1.00 20.00     0.039 A 
HETATM   19  C11 MIY  5181      -2.065  33.760 230.991  1.00 20.00     0.027 A 
HETATM   20  C10 MIY  5181      -1.354  34.654 230.173  1.00 20.00     0.017 A 
ENDROOT
BRANCH   1  21
HETATM   21  C21 MIY  5181      -2.450  43.144 225.946  1.00 20.00     0.256 C 
HETATM   22  N2  MIY  5181      -3.499  43.969 226.161  1.00 20.00    -0.366 N 
ATOM     23  H22 MIY  5181      -3.860  44.179 227.091  1.00  0.00     0.159 HD
ATOM     24  H21 MIY  5181      -3.919  44.359 225.317  1.00  0.00     0.159 HD
HETATM   25  O8  MIY  5181      -2.009  42.889 224.814  1.00 20.00    -0.268 OA
ENDBRANCH   1  21
BRANCH   4  26
HETATM   26  O2  MIY  5181       0.159  43.696 226.774  1.00 20.00    -0.358 OA
ATOM     27  H2  MIY  5181       0.031  43.682 225.832  1.00  0.00     0.217 HD
ENDBRANCH   4  26
BRANCH   7  28
HETATM   28  O7  MIY  5181      -2.293  42.361 230.339  1.00 20.00    -0.374 OA
ATOM     29  H7  MIY  5181      -3.182  42.657 230.179  1.00  0.00     0.211 HD
ENDBRANCH   7  28
BRANCH   5  30
HETATM   30  N1  MIY  5181       1.004  43.092 229.613  1.00 20.00    -0.390 N 
HETATM   31  C19 MIY  5181       2.453  43.323 229.369  1.00 20.00     0.149 C 
HETATM   32  C20 MIY  5181       0.361  44.414 229.922  1.00 20.00     0.149 C 
ENDBRANCH   5  30
BRANCH   8  33
HETATM   33  O6  MIY  5181      -3.937  40.312 230.756  1.00 20.00    -0.361 OA
ATOM     34  H6  MIY  5181      -4.425  39.542 231.022  1.00  0.00     0.217 HD
ENDBRANCH   8  33
BRANCH  17  35
HETATM   35  O4  MIY  5181      -4.364  36.054 232.710  1.00 20.00    -0.360 OA
ATOM     36  H4  MIY  5181      -5.156  36.443 232.359  1.00  0.00     0.217 HD
ENDBRANCH  17  35
BRANCH  20  37
HETATM   37  N7  MIY  5181      -0.401  34.142 229.301  1.00 20.00    -0.291 NA
HETATM   38  C71 MIY  5181       0.116  32.839 229.771  1.00 20.00     0.116 C 
HETATM   39  CN7 MIY  5181      -1.179  33.864 228.086  1.00 20.00     0.116 C 
ENDBRANCH  20  37
TORSDOF 7
ENDMDL
MODEL 2
REMARK VINA RESULT:      -6.6      5.269      7.727
REMARK  7 active torsions:
REMARK  status: ('A' for Active; 'I' for Inactive)
REMARK    1  A    between atoms: C2_6  and  C21_2 
REMARK       I    between atoms: C21_2  and  N2_3 
REMARK    2  A    between atoms: C3_9  and  O2_10 
REMARK    3  A    between atoms: C4_12  and  N1_13 
REMARK    4  A    between atoms: C18_17  and  O7_18 
REMARK    5  A    between atoms: C17_20  and  O6_21 
REMARK    6  A    between atoms: C13_31  and  O4_32 
REMARK    7  A    between atoms: C10_36  and  N7_37 
ROOT
HETATM    1  C2  MIY  5181      -3.796  35.916 231.584  1.00 20.00     0.116 C 
HETATM    2  C1  MIY  5181      -2.978  36.769 232.476  1.00 20.00     0.209 C 
HETATM    3  O1  MIY  5181      -3.521  37.350 233.396  1.00 20.00    -0.288 OA
HETATM    4  C3  MIY  5181      -3.161  35.182 230.621  1.00 20.00     0.108 C 
HETATM    5  C4  MIY  5181      -1.612  35.042 230.490  1.00 20.00     0.049 C 
HETATM    6  C5  MIY  5181      -0.789  35.699 231.650  1.00 20.00     0.088 C 
HETATM    7  C18 MIY  5181      -1.467  36.967 232.198  1.00 20.00     0.180 C 
HETATM    8  C17 MIY  5181      -0.549  37.520 233.308  1.00 20.00     0.097 C 
HETATM    9  C16 MIY  5181       0.434  36.857 233.964  1.00 20.00     0.030 C 
HETATM   10  C7  MIY  5181       0.796  35.430 233.658  1.00 20.00     0.030 C 
HETATM   11  C6  MIY  5181      -0.288  34.767 232.777  1.00 20.00     0.024 C 
HETATM   12  C15 MIY  5181       1.152  37.581 235.036  1.00 20.00     0.194 C 
HETATM   13  O5  MIY  5181       1.046  38.795 235.263  1.00 20.00    -0.287 OA
HETATM   14  C14 MIY  5181       1.970  36.809 235.999  1.00 20.00     0.056 A 
HETATM   15  C9  MIY  5181       1.871  35.420 236.022  1.00 20.00    -0.019 A 
HETATM   16  C8  MIY  5181       0.952  34.703 235.016  1.00 20.00     0.051 C 
HETATM   17  C13 MIY  5181       2.769  37.536 236.875  1.00 20.00     0.080 A 
HETATM   18  C12 MIY  5181       3.528  36.857 237.825  1.00 20.00     0.039 A 
HETATM   19  C11 MIY  5181       3.446  35.465 237.873  1.00 20.00     0.027 A 
HETATM   20  C10 MIY  5181       2.631  34.743 236.985  1.00 20.00     0.017 A 
ENDROOT
BRANCH   1  21
HETATM   21  C21 MIY  5181      -5.280  35.870 231.762  1.00 20.00     0.256 C 
HETATM   22  N2  MIY  5181      -5.696  35.466 232.984  1.00 20.00    -0.366 N 
ATOM     23  H22 MIY  5181      -5.054  35.195 233.729  1.00  0.00     0.159 HD
ATOM     24  H21 MIY  5181      -6.708  35.435 233.105  1.00  0.00     0.159 HD
HETATM   25  O8  MIY  5181      -6.061  36.200 230.856  1.00 20.00    -0.268 OA
ENDBRANCH   1  21
BRANCH   4  26
HETATM   26  O2  MIY  5181      -3.922  34.518 229.732  1.00 20.00    -0.358 OA
ATOM     27  H2  MIY  5181      -3.991  34.874 228.854  1.00  0.00     0.217 HD
ENDBRANCH   4  26
BRANCH   7  28
HETATM   28  O7  MIY  5181      -1.388  37.980 231.182  1.00 20.00    -0.374 OA
ATOM     29  H7  MIY  5181      -2.085  38.594 231.376  1.00  0.00     0.211 HD
ENDBRANCH   7  28
BRANCH   5  30
HETATM   30  N1  MIY  5181      -1.078  35.282 229.047  1.00 20.00    -0.390 N 
HETATM   31  C19 MIY  5181      -1.681  36.367 228.227  1.00 20.00     0.149 C 
HETATM   32  C20 MIY  5181       0.410  35.311 228.846  1.00 20.00     0.149 C 
ENDBRANCH   5  30
BRANCH   8  33
HETATM   33  O6  MIY  5181      -0.669  38.825 233.599  1.00 20.00    -0.361 OA
ATOM     34  H6  MIY  5181      -0.019  39.397 233.207  1.00  0.00     0.217 HD
ENDBRANCH   8  33
BRANCH  17  35
HETATM   35  O4  MIY  5181       2.801  38.912 236.774  1.00 20.00    -0.360 OA
ATOM     36  H4  MIY  5181       2.059  39.446 237.030  1.00  0.00     0.217 HD
ENDBRANCH  17  35
BRANCH  20  37
HETATM   37  N7  MIY  5181       2.558  33.362 237.125  1.00 20.00    -0.291 NA
HETATM   38  C71 MIY  5181       3.470  32.675 236.187  1.00 20.00     0.116 C 
HETATM   39  CN7 MIY  5181       3.104  33.137 238.471  1.00 20.00     0.116 C 
ENDBRANCH  20  37
TORSDOF 7
ENDMDL
MODEL 3
REMARK VINA RESULT:      -6.5      6.437      8.586
REMARK  7 active torsions:
REMARK  status: ('A' for Active; 'I' for Inactive)
REMARK    1  A    between atoms: C2_6  and  C21_2 
REMARK       I    between atoms: C21_2  and  N2_3 
REMARK    2  A    between atoms: C3_9  and  O2_10 
REMARK    3  A    between atoms: C4_12  and  N1_13 
REMARK    4  A    between atoms: C18_17  and  O7_18 
REMARK    5  A    between atoms: C17_20  and  O6_21 
REMARK    6  A    between atoms: C13_31  and  O4_32 
REMARK    7  A    between atoms: C10_36  and  N7_37 
ROOT
HETATM    1  C2  MIY  5181      -1.894  37.357 232.149  1.00 20.00     0.116 C 
HETATM    2  C1  MIY  5181      -0.875  37.783 233.136  1.00 20.00     0.209 C 
HETATM    3  O1  MIY  5181      -1.040  38.825 233.739  1.00 20.00    -0.288 OA
HETATM    4  C3  MIY  5181      -1.756  36.132 231.556  1.00 20.00     0.108 C 
HETATM    5  C4  MIY  5181      -0.689  35.067 231.960  1.00 20.00     0.049 C 
HETATM    6  C5  MIY  5181       0.161  35.430 233.225  1.00 20.00     0.088 C 
HETATM    7  C18 MIY  5181       0.410  36.944 233.343  1.00 20.00     0.180 C 
HETATM    8  C17 MIY  5181       1.269  37.156 234.607  1.00 20.00     0.097 C 
HETATM    9  C16 MIY  5181       1.448  36.289 235.633  1.00 20.00     0.030 C 
HETATM   10  C7  MIY  5181       0.823  34.921 235.659  1.00 20.00     0.030 C 
HETATM   11  C6  MIY  5181      -0.268  34.797 234.569  1.00 20.00     0.024 C 
HETATM   12  C15 MIY  5181       2.279  36.735 236.773  1.00 20.00     0.194 C 
HETATM   13  O5  MIY  5181       2.964  37.768 236.785  1.00 20.00    -0.287 OA
HETATM   14  C14 MIY  5181       2.215  35.981 238.045  1.00 20.00     0.056 A 
HETATM   15  C9  MIY  5181       1.223  35.020 238.223  1.00 20.00    -0.019 A 
HETATM   16  C8  MIY  5181       0.238  34.719 237.078  1.00 20.00     0.051 C 
HETATM   17  C13 MIY  5181       3.138  36.320 239.028  1.00 20.00     0.080 A 
HETATM   18  C12 MIY  5181       3.095  35.666 240.257  1.00 20.00     0.039 A 
HETATM   19  C11 MIY  5181       2.110  34.700 240.463  1.00 20.00     0.027 A 
HETATM   20  C10 MIY  5181       1.179  34.371 239.464  1.00 20.00     0.017 A 
ENDROOT
BRANCH   1  21
HETATM   21  C21 MIY  5181      -3.043  38.261 231.836  1.00 20.00     0.256 C 
HETATM   22  N2  MIY  5181      -2.697  39.508 231.444  1.00 20.00    -0.366 N 
ATOM     23  H22 MIY  5181      -1.729  39.823 231.380  1.00  0.00     0.159 HD
ATOM     24  H21 MIY  5181      -3.481  40.125 231.231  1.00  0.00     0.159 HD
HETATM   25  O8  MIY  5181      -4.221  37.878 231.914  1.00 20.00    -0.268 OA
ENDBRANCH   1  21
BRANCH   4  26
HETATM   26  O2  MIY  5181      -2.608  35.814 230.565  1.00 20.00    -0.358 OA
ATOM     27  H2  MIY  5181      -3.067  34.984 230.624  1.00  0.00     0.217 HD
ENDBRANCH   4  26
BRANCH   7  28
HETATM   28  O7  MIY  5181       1.300  37.325 232.283  1.00 20.00    -0.374 OA
ATOM     29  H7  MIY  5181       1.791  36.542 232.065  1.00  0.00     0.211 HD
ENDBRANCH   7  28
BRANCH   5  30
HETATM   30  N1  MIY  5181       0.095  34.473 230.752  1.00 20.00    -0.390 N 
HETATM   31  C19 MIY  5181      -0.366  33.192 230.153  1.00 20.00     0.149 C 
HETATM   32  C20 MIY  5181       0.475  35.405 229.637  1.00 20.00     0.149 C 
ENDBRANCH   5  30
BRANCH   8  33
HETATM   33  O6  MIY  5181       1.994  38.285 234.664  1.00 20.00    -0.361 OA
ATOM     34  H6  MIY  5181       2.024  38.715 235.511  1.00  0.00     0.217 HD
ENDBRANCH   8  33
BRANCH  17  35
HETATM   35  O4  MIY  5181       4.086  37.287 238.757  1.00 20.00    -0.360 OA
ATOM     36  H4  MIY  5181       4.990  37.185 239.029  1.00  0.00     0.217 HD
ENDBRANCH  17  35
BRANCH  20  37
HETATM   37  N7  MIY  5181       0.192  33.437 239.758  1.00 20.00    -0.291 NA
HETATM   38  C71 MIY  5181       0.678  32.056 239.553  1.00 20.00     0.116 C 
HETATM   39  CN7 MIY  5181       0.005  33.599 241.206  1.00 20.00     0.116 C 
ENDBRANCH  20  37
TORSDOF 7
ENDMDL
MODEL 4
REMARK VINA RESULT:      -6.4      5.110      8.241
REMARK  7 active torsions:
REMARK  status: ('A' for Active; 'I' for Inactive)
REMARK    1  A    between atoms: C2_6  and  C21_2 
REMARK       I    between atoms: C21_2  and  N2_3 
REMARK    2  A    between atoms: C3_9  and  O2_10 
REMARK    3  A    between atoms: C4_12  and  N1_13 
REMARK    4  A    between atoms: C18_17  and  O7_18 
REMARK    5  A    between atoms: C17_20  and  O6_21 
REMARK    6  A    between atoms: C13_31  and  O4_32 
REMARK    7  A    between atoms: C10_36  and  N7_37 
ROOT
HETATM    1  C2  MIY  5181       2.211  36.972 236.501  1.00 20.00     0.116 C 
HETATM    2  C1  MIY  5181       1.301  37.665 235.560  1.00 20.00     0.209 C 
HETATM    3  O1  MIY  5181       1.632  38.743 235.108  1.00 20.00    -0.288 OA
HETATM    4  C3  MIY  5181       1.881  35.713 236.920  1.00 20.00     0.108 C 
HETATM    5  C4  MIY  5181       0.695  34.872 236.352  1.00 20.00     0.049 C 
HETATM    6  C5  MIY  5181      -0.046  35.515 235.131  1.00 20.00     0.088 C 
HETATM    7  C18 MIY  5181      -0.079  37.052 235.214  1.00 20.00     0.180 C 
HETATM    8  C17 MIY  5181      -0.849  37.549 233.973  1.00 20.00     0.097 C 
HETATM    9  C16 MIY  5181      -1.105  36.857 232.836  1.00 20.00     0.030 C 
HETATM   10  C7  MIY  5181      -0.674  35.430 232.637  1.00 20.00     0.030 C 
HETATM   11  C6  MIY  5181       0.345  35.011 233.722  1.00 20.00     0.024 C 
HETATM   12  C15 MIY  5181      -1.820  37.563 231.750  1.00 20.00     0.194 C 
HETATM   13  O5  MIY  5181      -2.355  38.676 231.863  1.00 20.00    -0.287 OA
HETATM   14  C14 MIY  5181      -1.810  36.982 230.388  1.00 20.00     0.056 A 
HETATM   15  C9  MIY  5181      -0.954  35.921 230.103  1.00 20.00    -0.019 A 
HETATM   16  C8  MIY  5181      -0.066  35.335 231.216  1.00 20.00     0.051 C 
HETATM   17  C13 MIY  5181      -2.638  37.575 229.442  1.00 20.00     0.080 A 
HETATM   18  C12 MIY  5181      -2.636  37.088 228.136  1.00 20.00     0.039 A 
HETATM   19  C11 MIY  5181      -1.787  36.028 227.822  1.00 20.00     0.027 A 
HETATM   20  C10 MIY  5181      -0.951  35.441 228.786  1.00 20.00     0.017 A 
ENDROOT
BRANCH   1  21
HETATM   21  C21 MIY  5181       3.460  37.655 236.959  1.00 20.00     0.256 C 
HETATM   22  N2  MIY  5181       3.268  38.841 237.578  1.00 20.00    -0.366 N 
ATOM     23  H22 MIY  5181       2.346  39.256 237.714  1.00  0.00     0.159 HD
ATOM     24  H21 MIY  5181       4.120  39.307 237.890  1.00  0.00     0.159 HD
HETATM   25  O8  MIY  5181       4.582  37.151 236.794  1.00 20.00    -0.268 OA
ENDBRANCH   1  21
BRANCH   4  26
HETATM   26  O2  MIY  5181       2.641  35.149 237.876  1.00 20.00    -0.358 OA
ATOM     27  H2  MIY  5181       2.644  35.552 238.736  1.00  0.00     0.217 HD
ENDBRANCH   4  26
BRANCH   7  28
HETATM   28  O7  MIY  5181      -0.949  37.413 236.297  1.00 20.00    -0.374 OA
ATOM     29  H7  MIY  5181      -0.556  37.041 237.078  1.00  0.00     0.211 HD
ENDBRANCH   7  28
BRANCH   5  30
HETATM   30  N1  MIY  5181      -0.211  34.242 237.452  1.00 20.00    -0.390 N 
HETATM   31  C19 MIY  5181      -0.563  35.052 238.648  1.00 20.00     0.149 C 
HETATM   32  C20 MIY  5181      -1.440  33.501 237.006  1.00 20.00     0.149 C 
ENDBRANCH   5  30
BRANCH   8  33
HETATM   33  O6  MIY  5181      -1.408  38.766 234.054  1.00 20.00    -0.361 OA
ATOM     34  H6  MIY  5181      -2.056  38.969 233.390  1.00  0.00     0.217 HD
ENDBRANCH   8  33
BRANCH  17  35
HETATM   35  O4  MIY  5181      -3.453  38.622 229.821  1.00 20.00    -0.360 OA
ATOM     36  H4  MIY  5181      -3.764  39.262 229.191  1.00  0.00     0.217 HD
ENDBRANCH  17  35
BRANCH  20  37
HETATM   37  N7  MIY  5181      -0.092  34.423 228.389  1.00 20.00    -0.291 NA
HETATM   38  C71 MIY  5181      -0.779  33.115 228.366  1.00 20.00     0.116 C 
HETATM   39  CN7 MIY  5181       0.198  34.763 226.989  1.00 20.00     0.116 C 
ENDBRANCH  20  37
TORSDOF 7
ENDMDL
MODEL 5
REMARK VINA RESULT:      -6.3      5.527      7.800
REMARK  7 active torsions:
REMARK  status: ('A' for Active; 'I' for Inactive)
REMARK    1  A    between atoms: C2_6  and  C21_2 
REMARK       I    between atoms: C21_2  and  N2_3 
REMARK    2  A    between atoms: C3_9  and  O2_10 
REMARK    3  A    between atoms: C4_12  and  N1_13 
REMARK    4  A    between atoms: C18_17  and  O7_18 
REMARK    5  A    between atoms: C17_20  and  O6_21 
REMARK    6  A    between atoms: C13_31  and  O4_32 
REMARK    7  A    between atoms: C10_36  and  N7_37 
ROOT
HETATM    1  C2  MIY  5181      -2.503  38.416 231.537  1.00 20.00     0.116 C 
HETATM    2  C1  MIY  5181      -1.628  37.232 231.704  1.00 20.00     0.209 C 
HETATM    3  O1  MIY  5181      -0.659  37.110 230.980  1.00 20.00    -0.288 OA
HETATM    4  C3  MIY  5181      -3.527  38.601 232.425  1.00 20.00     0.108 C 
HETATM    5  C4  MIY  5181      -3.750  37.746 233.711  1.00 20.00     0.049 C 
HETATM    6  C5  MIY  5181      -2.616  36.710 234.021  1.00 20.00     0.088 C 
HETATM    7  C18 MIY  5181      -1.985  36.137 232.740  1.00 20.00     0.180 C 
HETATM    8  C17 MIY  5181      -0.909  35.125 233.187  1.00 20.00     0.097 C 
HETATM    9  C16 MIY  5181      -0.335  35.026 234.410  1.00 20.00     0.030 C 
HETATM   10  C7  MIY  5181      -0.711  35.918 235.560  1.00 20.00     0.030 C 
HETATM   11  C6  MIY  5181      -1.553  37.119 235.068  1.00 20.00     0.024 C 
HETATM   12  C15 MIY  5181       0.721  34.005 234.591  1.00 20.00     0.194 C 
HETATM   13  O5  MIY  5181       0.997  33.120 233.768  1.00 20.00    -0.287 OA
HETATM   14  C14 MIY  5181       1.607  34.092 235.774  1.00 20.00     0.056 A 
HETATM   15  C9  MIY  5181       1.586  35.240 236.563  1.00 20.00    -0.019 A 
HETATM   16  C8  MIY  5181       0.608  36.381 236.224  1.00 20.00     0.051 C 
HETATM   17  C13 MIY  5181       2.462  33.020 236.004  1.00 20.00     0.080 A 
HETATM   18  C12 MIY  5181       3.342  33.071 237.082  1.00 20.00     0.039 A 
HETATM   19  C11 MIY  5181       3.344  34.209 237.887  1.00 20.00     0.027 A 
HETATM   20  C10 MIY  5181       2.479  35.289 237.642  1.00 20.00     0.017 A 
ENDROOT
BRANCH   1  21
HETATM   21  C21 MIY  5181      -2.243  39.375 230.419  1.00 20.00     0.256 C 
HETATM   22  N2  MIY  5181      -1.710  40.559 230.797  1.00 20.00    -0.366 N 
ATOM     23  H22 MIY  5181      -1.512  40.796 231.769  1.00  0.00     0.159 HD
ATOM     24  H21 MIY  5181      -1.533  41.213 230.035  1.00  0.00     0.159 HD
HETATM   25  O8  MIY  5181      -2.483  39.086 229.237  1.00 20.00    -0.268 OA
ENDBRANCH   1  21
BRANCH   4  26
HETATM   26  O2  MIY  5181      -4.394  39.600 232.184  1.00 20.00    -0.358 OA
ATOM     27  H2  MIY  5181      -5.125  39.424 231.603  1.00  0.00     0.217 HD
ENDBRANCH   4  26
BRANCH   7  28
HETATM   28  O7  MIY  5181      -2.966  35.303 232.104  1.00 20.00    -0.374 OA
ATOM     29  H7  MIY  5181      -3.139  34.598 232.716  1.00  0.00     0.211 HD
ENDBRANCH   7  28
BRANCH   5  30
HETATM   30  N1  MIY  5181      -5.212  37.235 233.881  1.00 20.00    -0.390 N 
HETATM   31  C19 MIY  5181      -5.440  35.816 234.263  1.00 20.00     0.149 C 
HETATM   32  C20 MIY  5181      -6.167  38.093 234.661  1.00 20.00     0.149 C 
ENDBRANCH   5  30
BRANCH   8  33
HETATM   33  O6  MIY  5181      -0.565  34.177 232.301  1.00 20.00    -0.361 OA
ATOM     34  H6  MIY  5181      -1.250  33.899 231.705  1.00  0.00     0.217 HD
ENDBRANCH   8  33
BRANCH  17  35
HETATM   35  O4  MIY  5181       2.409  31.924 235.166  1.00 20.00    -0.360 OA
ATOM     36  H4  MIY  5181       1.766  31.862 234.469  1.00  0.00     0.217 HD
ENDBRANCH  17  35
BRANCH  20  37
HETATM   37  N7  MIY  5181       2.573  36.413 238.453  1.00 20.00    -0.291 NA
HETATM   38  C71 MIY  5181       2.860  36.045 239.856  1.00 20.00     0.116 C 
HETATM   39  CN7 MIY  5181       3.778  37.085 237.948  1.00 20.00     0.116 C 
ENDBRANCH  20  37
TORSDOF 7
ENDMDL
MODEL 6
REMARK VINA RESULT:      -6.2      6.003      9.145
REMARK  7 active torsions:
REMARK  status: ('A' for Active; 'I' for Inactive)
REMARK    1  A    between atoms: C2_6  and  C21_2 
REMARK       I    between atoms: C21_2  and  N2_3 
REMARK    2  A    between atoms: C3_9  and  O2_10 
REMARK    3  A    between atoms: C4_12  and  N1_13 
REMARK    4  A    between atoms: C18_17  and  O7_18 
REMARK    5  A    between atoms: C17_20  and  O6_21 
REMARK    6  A    between atoms: C13_31  and  O4_32 
REMARK    7  A    between atoms: C10_36  and  N7_37 
ROOT
HETATM    1  C2  MIY  5181       1.988  37.294 238.171  1.00 20.00     0.116 C 
HETATM    2  C1  MIY  5181       0.597  37.458 237.689  1.00 20.00     0.209 C 
HETATM    3  O1  MIY  5181       0.047  38.532 237.837  1.00 20.00    -0.288 OA
HETATM    4  C3  MIY  5181       2.636  36.120 237.903  1.00 20.00     0.108 C 
HETATM    5  C4  MIY  5181       2.081  34.991 236.978  1.00 20.00     0.049 C 
HETATM    6  C5  MIY  5181       0.750  35.345 236.231  1.00 20.00     0.088 C 
HETATM    7  C18 MIY  5181      -0.161  36.260 237.067  1.00 20.00     0.180 C 
HETATM    8  C17 MIY  5181      -1.433  36.508 236.229  1.00 20.00     0.097 C 
HETATM    9  C16 MIY  5181      -1.586  36.320 234.896  1.00 20.00     0.030 C 
HETATM   10  C7  MIY  5181      -0.487  35.788 234.018  1.00 20.00     0.030 C 
HETATM   11  C6  MIY  5181       0.869  35.816 234.762  1.00 20.00     0.024 C 
HETATM   12  C15 MIY  5181      -2.890  36.681 234.297  1.00 20.00     0.194 C 
HETATM   13  O5  MIY  5181      -3.907  36.974 234.943  1.00 20.00    -0.287 OA
HETATM   14  C14 MIY  5181      -2.989  36.826 232.827  1.00 20.00     0.056 A 
HETATM   15  C9  MIY  5181      -1.826  36.847 232.062  1.00 20.00    -0.019 A 
HETATM   16  C8  MIY  5181      -0.458  36.670 232.746  1.00 20.00     0.051 C 
HETATM   17  C13 MIY  5181      -4.262  36.986 232.292  1.00 20.00     0.080 A 
HETATM   18  C12 MIY  5181      -4.405  37.165 230.918  1.00 20.00     0.039 A 
HETATM   19  C11 MIY  5181      -3.256  37.193 230.128  1.00 20.00     0.027 A 
HETATM   20  C10 MIY  5181      -1.975  37.036 230.681  1.00 20.00     0.017 A 
ENDROOT
BRANCH   1  21
HETATM   21  C21 MIY  5181       2.647  38.406 238.922  1.00 20.00     0.256 C 
HETATM   22  N2  MIY  5181       2.345  38.462 240.239  1.00 20.00    -0.366 N 
ATOM     23  H22 MIY  5181       1.705  37.810 240.692  1.00  0.00     0.159 HD
ATOM     24  H21 MIY  5181       2.794  39.221 240.751  1.00  0.00     0.159 HD
HETATM   25  O8  MIY  5181       3.425  39.200 238.371  1.00 20.00    -0.268 OA
ENDBRANCH   1  21
BRANCH   4  26
HETATM   26  O2  MIY  5181       3.845  35.928 238.460  1.00 20.00    -0.358 OA
ATOM     27  H2  MIY  5181       4.438  35.319 238.035  1.00  0.00     0.217 HD
ENDBRANCH   4  26
BRANCH   7  28
HETATM   28  O7  MIY  5181      -0.653  35.492 238.176  1.00 20.00    -0.374 OA
ATOM     29  H7  MIY  5181      -0.396  35.970 238.955  1.00  0.00     0.211 HD
ENDBRANCH   7  28
BRANCH   5  30
HETATM   30  N1  MIY  5181       2.159  33.568 237.607  1.00 20.00    -0.390 N 
HETATM   31  C19 MIY  5181       0.997  32.651 237.462  1.00 20.00     0.149 C 
HETATM   32  C20 MIY  5181       3.416  32.775 237.390  1.00 20.00     0.149 C 
ENDBRANCH   5  30
BRANCH   8  33
HETATM   33  O6  MIY  5181      -2.541  36.864 236.900  1.00 20.00    -0.361 OA
ATOM     34  H6  MIY  5181      -2.790  36.294 237.617  1.00  0.00     0.217 HD
ENDBRANCH   8  33
BRANCH  17  35
HETATM   35  O4  MIY  5181      -5.357  36.950 233.133  1.00 20.00    -0.360 OA
ATOM     36  H4  MIY  5181      -5.280  37.158 234.057  1.00  0.00     0.217 HD
ENDBRANCH  17  35
BRANCH  20  37
HETATM   37  N7  MIY  5181      -0.872  37.127 229.840  1.00 20.00    -0.291 NA
HETATM   38  C71 MIY  5181      -1.157  36.548 228.511  1.00 20.00     0.116 C 
HETATM   39  CN7 MIY  5181      -0.731  38.576 229.638  1.00 20.00     0.116 C 
ENDBRANCH  20  37
TORSDOF 7
ENDMDL
MODEL 7
REMARK VINA RESULT:      -6.0      5.906      8.160
REMARK  7 active torsions:
REMARK  status: ('A' for Active; 'I' for Inactive)
REMARK    1  A    between atoms: C2_6  and  C21_2 
REMARK       I    between atoms: C21_2  and  N2_3 
REMARK    2  A    between atoms: C3_9  and  O2_10 
REMARK    3  A    between atoms: C4_12  and  N1_13 
REMARK    4  A    between atoms: C18_17  and  O7_18 
REMARK    5  A    between atoms: C17_20  and  O6_21 
REMARK    6  A    between atoms: C13_31  and  O4_32 
REMARK    7  A    between atoms: C10_36  and  N7_37 
ROOT
HETATM    1  C2  MIY  5181      -2.966  35.931 231.892  1.00 20.00     0.116 C 
HETATM    2  C1  MIY  5181      -2.427  36.760 232.995  1.00 20.00     0.209 C 
HETATM    3  O1  MIY  5181      -3.196  37.212 233.821  1.00 20.00    -0.288 OA
HETATM    4  C3  MIY  5181      -2.084  35.338 231.032  1.00 20.00     0.108 C 
HETATM    5  C4  MIY  5181      -0.534  35.329 231.217  1.00 20.00     0.049 C 
HETATM    6  C5  MIY  5181      -0.027  35.939 232.567  1.00 20.00     0.088 C 
HETATM    7  C18 MIY  5181      -0.917  37.097 233.053  1.00 20.00     0.180 C 
HETATM    8  C17 MIY  5181      -0.297  37.615 234.367  1.00 20.00     0.097 C 
HETATM    9  C16 MIY  5181       0.592  36.973 235.164  1.00 20.00     0.030 C 
HETATM   10  C7  MIY  5181       1.140  35.611 234.837  1.00 20.00     0.030 C 
HETATM   11  C6  MIY  5181       0.321  34.949 233.703  1.00 20.00     0.024 C 
HETATM   12  C15 MIY  5181       1.008  37.649 236.412  1.00 20.00     0.194 C 
HETATM   13  O5  MIY  5181       0.746  38.826 236.699  1.00 20.00    -0.287 OA
HETATM   14  C14 MIY  5181       1.684  36.857 237.465  1.00 20.00     0.056 A 
HETATM   15  C9  MIY  5181       1.713  35.469 237.366  1.00 20.00    -0.019 A 
HETATM   16  C8  MIY  5181       1.085  34.777 236.141  1.00 20.00     0.051 C 
HETATM   17  C13 MIY  5181       2.219  37.560 238.539  1.00 20.00     0.080 A 
HETATM   18  C12 MIY  5181       2.831  36.858 239.575  1.00 20.00     0.039 A 
HETATM   19  C11 MIY  5181       2.871  35.466 239.502  1.00 20.00     0.027 A 
HETATM   20  C10 MIY  5181       2.323  34.767 238.414  1.00 20.00     0.017 A 
ENDROOT
BRANCH   1  21
HETATM   21  C21 MIY  5181      -4.445  35.757 231.753  1.00 20.00     0.256 C 
HETATM   22  N2  MIY  5181      -5.018  34.978 232.698  1.00 20.00    -0.366 N 
ATOM     23  H22 MIY  5181      -4.489  34.525 233.443  1.00  0.00     0.159 HD
ATOM     24  H21 MIY  5181      -6.027  34.859 232.603  1.00  0.00     0.159 HD
HETATM   25  O8  MIY  5181      -5.089  36.307 230.846  1.00 20.00    -0.268 OA
ENDBRANCH   1  21
BRANCH   4  26
HETATM   26  O2  MIY  5181      -2.585  34.702 229.958  1.00 20.00    -0.358 OA
ATOM     27  H2  MIY  5181      -3.343  34.143 230.085  1.00  0.00     0.217 HD
ENDBRANCH   4  26
BRANCH   7  28
HETATM   28  O7  MIY  5181      -0.729  38.200 232.153  1.00 20.00    -0.374 OA
ATOM     29  H7  MIY  5181      -1.589  38.396 231.802  1.00  0.00     0.211 HD
ENDBRANCH   7  28
BRANCH   5  30
HETATM   30  N1  MIY  5181       0.254  35.739 229.938  1.00 20.00    -0.390 N 
HETATM   31  C19 MIY  5181       0.630  34.688 228.955  1.00 20.00     0.149 C 
HETATM   32  C20 MIY  5181      -0.221  36.946 229.180  1.00 20.00     0.149 C 
ENDBRANCH   5  30
BRANCH   8  33
HETATM   33  O6  MIY  5181      -0.593  38.876 234.722  1.00 20.00    -0.361 OA
ATOM     34  H6  MIY  5181      -0.260  39.556 234.149  1.00  0.00     0.217 HD
ENDBRANCH   8  33
BRANCH  17  35
HETATM   35  O4  MIY  5181       2.143  38.939 238.548  1.00 20.00    -0.360 OA
ATOM     36  H4  MIY  5181       2.454  39.448 239.286  1.00  0.00     0.217 HD
ENDBRANCH  17  35
BRANCH  20  37
HETATM   37  N7  MIY  5181       2.352  33.377 238.435  1.00 20.00    -0.291 NA
HETATM   38  C71 MIY  5181       3.676  32.871 238.854  1.00 20.00     0.116 C 
HETATM   39  CN7 MIY  5181       1.419  33.044 239.520  1.00 20.00     0.116 C 
ENDBRANCH  20  37
TORSDOF 7
ENDMDL
MODEL 8
REMARK VINA RESULT:      -5.9      5.751      9.572
REMARK  7 active torsions:
REMARK  status: ('A' for Active; 'I' for Inactive)
REMARK    1  A    between atoms: C2_6  and  C21_2 
REMARK       I    between atoms: C21_2  and  N2_3 
REMARK    2  A    between atoms: C3_9  and  O2_10 
REMARK    3  A    between atoms: C4_12  and  N1_13 
REMARK    4  A    between atoms: C18_17  and  O7_18 
REMARK    5  A    between atoms: C17_20  and  O6_21 
REMARK    6  A    between atoms: C13_31  and  O4_32 
REMARK    7  A    between atoms: C10_36  and  N7_37 
ROOT
HETATM    1  C2  MIY  5181      -0.521  34.618 238.072  1.00 20.00     0.116 C 
HETATM    2  C1  MIY  5181      -0.518  34.187 236.655  1.00 20.00     0.209 C 
HETATM    3  O1  MIY  5181      -1.394  33.439 236.266  1.00 20.00    -0.288 OA
HETATM    4  C3  MIY  5181       0.402  35.543 238.474  1.00 20.00     0.108 C 
HETATM    5  C4  MIY  5181       1.362  36.314 237.513  1.00 20.00     0.049 C 
HETATM    6  C5  MIY  5181       1.109  36.064 235.988  1.00 20.00     0.088 C 
HETATM    7  C18 MIY  5181       0.621  34.633 235.705  1.00 20.00     0.180 C 
HETATM    8  C17 MIY  5181       0.435  34.519 234.178  1.00 20.00     0.097 C 
HETATM    9  C16 MIY  5181       0.324  35.534 233.287  1.00 20.00     0.030 C 
HETATM   10  C7  MIY  5181       0.400  36.981 233.690  1.00 20.00     0.030 C 
HETATM   11  C6  MIY  5181       0.285  37.128 235.225  1.00 20.00     0.024 C 
HETATM   12  C15 MIY  5181       0.095  35.181 231.869  1.00 20.00     0.194 C 
HETATM   13  O5  MIY  5181       0.172  34.033 231.405  1.00 20.00    -0.287 OA
HETATM   14  C14 MIY  5181      -0.378  36.229 230.936  1.00 20.00     0.056 A 
HETATM   15  C9  MIY  5181      -0.812  37.451 231.442  1.00 20.00    -0.019 A 
HETATM   16  C8  MIY  5181      -0.750  37.715 232.958  1.00 20.00     0.051 C 
HETATM   17  C13 MIY  5181      -0.406  35.905 229.584  1.00 20.00     0.080 A 
HETATM   18  C12 MIY  5181      -0.879  36.844 228.669  1.00 20.00     0.039 A 
HETATM   19  C11 MIY  5181      -1.323  38.076 229.150  1.00 20.00     0.027 A 
HETATM   20  C10 MIY  5181      -1.293  38.389 230.519  1.00 20.00     0.017 A 
ENDROOT
BRANCH   1  21
HETATM   21  C21 MIY  5181      -1.528  34.044 239.017  1.00 20.00     0.256 C 
HETATM   22  N2  MIY  5181      -2.811  34.383 238.758  1.00 20.00    -0.366 N 
ATOM     23  H22 MIY  5181      -3.080  34.997 237.989  1.00  0.00     0.159 HD
ATOM     24  H21 MIY  5181      -3.497  33.991 239.403  1.00  0.00     0.159 HD
HETATM   25  O8  MIY  5181      -1.199  33.297 239.952  1.00 20.00    -0.268 OA
ENDBRANCH   1  21
BRANCH   4  26
HETATM   26  O2  MIY  5181       0.480  35.825 239.787  1.00 20.00    -0.358 OA
ATOM     27  H2  MIY  5181       0.548  36.738 240.042  1.00  0.00     0.217 HD
ENDBRANCH   4  26
BRANCH   7  28
HETATM   28  O7  MIY  5181       1.715  33.739 235.962  1.00 20.00    -0.374 OA
ATOM     29  H7  MIY  5181       1.344  33.009 236.444  1.00  0.00     0.211 HD
ENDBRANCH   7  28
BRANCH   5  30
HETATM   30  N1  MIY  5181       2.850  36.307 237.974  1.00 20.00    -0.390 N 
HETATM   31  C19 MIY  5181       3.470  35.022 238.392  1.00 20.00     0.149 C 
HETATM   32  C20 MIY  5181       3.845  37.061 237.137  1.00 20.00     0.149 C 
ENDBRANCH   5  30
BRANCH   8  33
HETATM   33  O6  MIY  5181       0.478  33.284 233.652  1.00 20.00    -0.361 OA
ATOM     34  H6  MIY  5181       0.101  33.190 232.785  1.00  0.00     0.217 HD
ENDBRANCH   8  33
BRANCH  17  35
HETATM   35  O4  MIY  5181       0.047  34.666 229.177  1.00 20.00    -0.360 OA
ATOM     36  H4  MIY  5181      -0.103  33.887 229.699  1.00  0.00     0.217 HD
ENDBRANCH  17  35
BRANCH  20  37
HETATM   37  N7  MIY  5181      -1.801  39.616 230.931  1.00 20.00    -0.291 NA
HETATM   38  C71 MIY  5181      -1.400  40.702 230.012  1.00 20.00     0.116 C 
HETATM   39  CN7 MIY  5181      -3.251  39.446 230.763  1.00 20.00     0.116 C 
ENDBRANCH  20  37
TORSDOF 7
ENDMDL
MODEL 9
REMARK VINA RESULT:      -5.9      6.063      9.233
REMARK  7 active torsions:
REMARK  status: ('A' for Active; 'I' for Inactive)
REMARK    1  A    between atoms: C2_6  and  C21_2 
REMARK       I    between atoms: C21_2  and  N2_3 
REMARK    2  A    between atoms: C3_9  and  O2_10 
REMARK    3  A    between atoms: C4_12  and  N1_13 
REMARK    4  A    between atoms: C18_17  and  O7_18 
REMARK    5  A    between atoms: C17_20  and  O6_21 
REMARK    6  A    between atoms: C13_31  and  O4_32 
REMARK    7  A    between atoms: C10_36  and  N7_37 
ROOT
HETATM    1  C2  MIY  5181       1.818  35.187 237.638  1.00 20.00     0.116 C 
HETATM    2  C1  MIY  5181       1.502  35.273 236.193  1.00 20.00     0.209 C 
HETATM    3  O1  MIY  5181       1.774  34.331 235.475  1.00 20.00    -0.288 OA
HETATM    4  C3  MIY  5181       1.410  36.205 238.456  1.00 20.00     0.108 C 
HETATM    5  C4  MIY  5181       0.486  37.382 238.014  1.00 20.00     0.049 C 
HETATM    6  C5  MIY  5181      -0.088  37.261 236.562  1.00 20.00     0.088 C 
HETATM    7  C18 MIY  5181       0.897  36.570 235.602  1.00 20.00     0.180 C 
HETATM    8  C17 MIY  5181       0.220  36.538 234.216  1.00 20.00     0.097 C 
HETATM    9  C16 MIY  5181      -1.098  36.701 233.943  1.00 20.00     0.030 C 
HETATM   10  C7  MIY  5181      -2.121  36.979 235.009  1.00 20.00     0.030 C 
HETATM   11  C6  MIY  5181      -1.530  36.720 236.415  1.00 20.00     0.024 C 
HETATM   12  C15 MIY  5181      -1.527  36.574 232.532  1.00 20.00     0.194 C 
HETATM   13  O5  MIY  5181      -0.757  36.505 231.563  1.00 20.00    -0.287 OA
HETATM   14  C14 MIY  5181      -2.966  36.394 232.234  1.00 20.00     0.056 A 
HETATM   15  C9  MIY  5181      -3.852  36.122 233.273  1.00 20.00    -0.019 A 
HETATM   16  C8  MIY  5181      -3.333  36.060 234.722  1.00 20.00     0.051 C 
HETATM   17  C13 MIY  5181      -3.347  36.461 230.899  1.00 20.00     0.080 A 
HETATM   18  C12 MIY  5181      -4.684  36.260 230.563  1.00 20.00     0.039 A 
HETATM   19  C11 MIY  5181      -5.593  35.982 231.584  1.00 20.00     0.027 A 
HETATM   20  C10 MIY  5181      -5.194  35.913 232.929  1.00 20.00     0.017 A 
ENDROOT
BRANCH   1  21
HETATM   21  C21 MIY  5181       2.558  33.999 238.163  1.00 20.00     0.256 C 
HETATM   22  N2  MIY  5181       1.918  32.817 238.012  1.00 20.00    -0.366 N 
ATOM     23  H22 MIY  5181       0.994  32.733 237.589  1.00  0.00     0.159 HD
ATOM     24  H21 MIY  5181       2.423  32.006 238.371  1.00  0.00     0.159 HD
HETATM   25  O8  MIY  5181       3.682  34.100 238.678  1.00 20.00    -0.268 OA
ENDBRANCH   1  21
BRANCH   4  26
HETATM   26  O2  MIY  5181       1.819  36.183 239.737  1.00 20.00    -0.358 OA
ATOM     27  H2  MIY  5181       1.154  36.191 240.416  1.00  0.00     0.217 HD
ENDBRANCH   4  26
BRANCH   7  28
HETATM   28  O7  MIY  5181       2.005  37.460 235.397  1.00 20.00    -0.374 OA
ATOM     29  H7  MIY  5181       2.591  37.008 234.802  1.00  0.00     0.211 HD
ENDBRANCH   7  28
BRANCH   5  30
HETATM   30  N1  MIY  5181       1.016  38.787 238.429  1.00 20.00    -0.390 N 
HETATM   31  C19 MIY  5181       2.439  39.129 238.162  1.00 20.00     0.149 C 
HETATM   32  C20 MIY  5181       0.172  39.982 238.089  1.00 20.00     0.149 C 
ENDBRANCH   5  30
BRANCH   8  33
HETATM   33  O6  MIY  5181       1.028  36.427 233.149  1.00 20.00    -0.361 OA
ATOM     34  H6  MIY  5181       1.174  37.226 232.656  1.00  0.00     0.217 HD
ENDBRANCH   8  33
BRANCH  17  35
HETATM   35  O4  MIY  5181      -2.396  36.738 229.938  1.00 20.00    -0.360 OA
ATOM     36  H4  MIY  5181      -2.127  36.085 229.303  1.00  0.00     0.217 HD
ENDBRANCH  17  35
BRANCH  20  37
HETATM   37  N7  MIY  5181      -6.144  35.580 233.887  1.00 20.00    -0.291 NA
HETATM   38  C71 MIY  5181      -6.971  36.748 234.257  1.00 20.00     0.116 C 
HETATM   39  CN7 MIY  5181      -7.031  34.657 233.166  1.00 20.00     0.116 C 
ENDBRANCH  20  37
TORSDOF 7
ENDMDL
