5282381
  -OEChem-03022011533D

 65 65  0     1  0  0  0  0  0999 V2000
    5.0749    2.9278    0.6030 O   0  0  0  0  0  0  0  0  0  0  0  0
    0.6707    4.2098   -0.4119 O   0  0  0  0  0  0  0  0  0  0  0  0
    3.3802   -3.1984    2.2194 O   0  0  0  0  0  0  0  0  0  0  0  0
   -8.0176   -0.2665   -0.3460 O   0  0  0  0  0  0  0  0  0  0  0  0
   -6.8309   -0.7696    1.5669 O   0  0  0  0  0  0  0  0  0  0  0  0
    1.6545    1.9922   -0.3245 C   0  0  1  0  0  0  0  0  0  0  0  0
    3.0305    1.6704    0.2783 C   0  0  2  0  0  0  0  0  0  0  0  0
    3.9263    2.8117   -0.2217 C   0  0  1  0  0  0  0  0  0  0  0  0
    3.0557    4.0608   -0.1056 C   0  0  0  0  0  0  0  0  0  0  0  0
    0.4984    1.4023    0.4638 C   0  0  0  0  0  0  0  0  0  0  0  0
    1.6666    3.5070   -0.2916 C   0  0  0  0  0  0  0  0  0  0  0  0
    3.5316    0.3194   -0.1207 C   0  0  0  0  0  0  0  0  0  0  0  0
   -0.8120    1.4778   -0.3201 C   0  0  0  0  0  0  0  0  0  0  0  0
   -1.9671    0.8517    0.4632 C   0  0  0  0  0  0  0  0  0  0  0  0
    3.8482   -0.6473    0.7531 C   0  0  0  0  0  0  0  0  0  0  0  0
    3.4589   -3.1872    0.7908 C   0  0  2  0  0  0  0  0  0  0  0  0
    4.3591   -2.0050    0.3503 C   0  0  0  0  0  0  0  0  0  0  0  0
   -3.2710    0.8980   -0.3362 C   0  0  0  0  0  0  0  0  0  0  0  0
    2.0346   -2.9648    0.2236 C   0  0  0  0  0  0  0  0  0  0  0  0
    4.0377   -4.5356    0.3488 C   0  0  0  0  0  0  0  0  0  0  0  0
   -4.4192    0.2407    0.4361 C   0  0  0  0  0  0  0  0  0  0  0  0
    1.9544   -2.8904   -1.3071 C   0  0  0  0  0  0  0  0  0  0  0  0
    0.5281   -2.5849   -1.7698 C   0  0  0  0  0  0  0  0  0  0  0  0
   -5.7302    0.2466   -0.3498 C   0  0  0  0  0  0  0  0  0  0  0  0
    0.4447   -2.4767   -3.2841 C   0  0  0  0  0  0  0  0  0  0  0  0
   -6.8920   -0.3353    0.4249 C   0  0  0  0  0  0  0  0  0  0  0  0
   -9.2154   -0.7545    0.2671 C   0  0  0  0  0  0  0  0  0  0  0  0
    1.6174    1.6853   -1.3780 H   0  0  0  0  0  0  0  0  0  0  0  0
    2.9760    1.7287    1.3760 H   0  0  0  0  0  0  0  0  0  0  0  0
    4.2458    2.6522   -1.2591 H   0  0  0  0  0  0  0  0  0  0  0  0
    3.1370    4.5321    0.8782 H   0  0  0  0  0  0  0  0  0  0  0  0
    3.2936    4.7842   -0.8893 H   0  0  0  0  0  0  0  0  0  0  0  0
    0.3814    1.9241    1.4219 H   0  0  0  0  0  0  0  0  0  0  0  0
    0.7049    0.3507    0.6955 H   0  0  0  0  0  0  0  0  0  0  0  0
    3.6431    0.1276   -1.1854 H   0  0  0  0  0  0  0  0  0  0  0  0
   -1.0695    2.5148   -0.5560 H   0  0  0  0  0  0  0  0  0  0  0  0
   -0.6958    0.9516   -1.2757 H   0  0  0  0  0  0  0  0  0  0  0  0
   -1.7230   -0.1900    0.7051 H   0  0  0  0  0  0  0  0  0  0  0  0
   -2.0987    1.3828    1.4136 H   0  0  0  0  0  0  0  0  0  0  0  0
    3.7464   -0.4583    1.8189 H   0  0  0  0  0  0  0  0  0  0  0  0
    5.3393   -2.1184    0.8338 H   0  0  0  0  0  0  0  0  0  0  0  0
    4.5584   -2.0466   -0.7268 H   0  0  0  0  0  0  0  0  0  0  0  0
    5.5709    3.7083    0.3022 H   0  0  0  0  0  0  0  0  0  0  0  0
   -3.1340    0.3817   -1.2941 H   0  0  0  0  0  0  0  0  0  0  0  0
   -3.5292    1.9394   -0.5629 H   0  0  0  0  0  0  0  0  0  0  0  0
    1.5863   -2.0680    0.6698 H   0  0  0  0  0  0  0  0  0  0  0  0
    1.3921   -3.7855    0.5725 H   0  0  0  0  0  0  0  0  0  0  0  0
    4.1953   -4.5849   -0.7324 H   0  0  0  0  0  0  0  0  0  0  0  0
    5.0011   -4.7206    0.8379 H   0  0  0  0  0  0  0  0  0  0  0  0
    3.3768   -5.3578    0.6453 H   0  0  0  0  0  0  0  0  0  0  0  0
   -4.5620    0.7643    1.3899 H   0  0  0  0  0  0  0  0  0  0  0  0
   -4.1519   -0.7937    0.6862 H   0  0  0  0  0  0  0  0  0  0  0  0
    2.6146   -2.1134   -1.7012 H   0  0  0  0  0  0  0  0  0  0  0  0
    2.2750   -3.8417   -1.7458 H   0  0  0  0  0  0  0  0  0  0  0  0
    4.2817   -3.3018    2.5691 H   0  0  0  0  0  0  0  0  0  0  0  0
   -0.1517   -3.3728   -1.4255 H   0  0  0  0  0  0  0  0  0  0  0  0
    0.1859   -1.6432   -1.3251 H   0  0  0  0  0  0  0  0  0  0  0  0
   -5.6074   -0.3372   -1.2690 H   0  0  0  0  0  0  0  0  0  0  0  0
   -5.9884    1.2776   -0.6176 H   0  0  0  0  0  0  0  0  0  0  0  0
   -0.5831   -2.2604   -3.5921 H   0  0  0  0  0  0  0  0  0  0  0  0
    0.7534   -3.4119   -3.7619 H   0  0  0  0  0  0  0  0  0  0  0  0
    1.0868   -1.6717   -3.6558 H   0  0  0  0  0  0  0  0  0  0  0  0
   -9.1083   -1.8144    0.5164 H   0  0  0  0  0  0  0  0  0  0  0  0
   -9.4492   -0.1683    1.1609 H   0  0  0  0  0  0  0  0  0  0  0  0
  -10.0336   -0.6434   -0.4495 H   0  0  0  0  0  0  0  0  0  0  0  0
  1  8  1  0  0  0  0
  1 43  1  0  0  0  0
  2 11  2  0  0  0  0
  3 16  1  0  0  0  0
  3 55  1  0  0  0  0
  4 26  1  0  0  0  0
  4 27  1  0  0  0  0
  5 26  2  0  0  0  0
  6  7  1  0  0  0  0
  6 10  1  0  0  0  0
  6 11  1  0  0  0  0
  6 28  1  0  0  0  0
  7  8  1  0  0  0  0
  7 12  1  0  0  0  0
  7 29  1  0  0  0  0
  8  9  1  0  0  0  0
  8 30  1  0  0  0  0
  9 11  1  0  0  0  0
  9 31  1  0  0  0  0
  9 32  1  0  0  0  0
 10 13  1  0  0  0  0
 10 33  1  0  0  0  0
 10 34  1  0  0  0  0
 12 15  2  0  0  0  0
 12 35  1  0  0  0  0
 13 14  1  0  0  0  0
 13 36  1  0  0  0  0
 13 37  1  0  0  0  0
 14 18  1  0  0  0  0
 14 38  1  0  0  0  0
 14 39  1  0  0  0  0
 15 17  1  0  0  0  0
 15 40  1  0  0  0  0
 16 17  1  0  0  0  0
 16 19  1  0  0  0  0
 16 20  1  0  0  0  0
 17 41  1  0  0  0  0
 17 42  1  0  0  0  0
 18 21  1  0  0  0  0
 18 44  1  0  0  0  0
 18 45  1  0  0  0  0
 19 22  1  0  0  0  0
 19 46  1  0  0  0  0
 19 47  1  0  0  0  0
 20 48  1  0  0  0  0
 20 49  1  0  0  0  0
 20 50  1  0  0  0  0
 21 24  1  0  0  0  0
 21 51  1  0  0  0  0
 21 52  1  0  0  0  0
 22 23  1  0  0  0  0
 22 53  1  0  0  0  0
 22 54  1  0  0  0  0
 23 25  1  0  0  0  0
 23 56  1  0  0  0  0
 23 57  1  0  0  0  0
 24 26  1  0  0  0  0
 24 58  1  0  0  0  0
 24 59  1  0  0  0  0
 25 60  1  0  0  0  0
 25 61  1  0  0  0  0
 25 62  1  0  0  0  0
 27 63  1  0  0  0  0
 27 64  1  0  0  0  0
 27 65  1  0  0  0  0
M  END
> <PUBCHEM_COMPOUND_CID>
5282381

> <PUBCHEM_CONFORMER_RMSD>
1.4

> <PUBCHEM_CONFORMER_DIVERSEORDER>
1
85
123
65
79
57
127
64
86
8
100
120
59
139
55
125
27
138
5
63
44
110
98
136
149
45
107
69
80
131
23
54
90
22
9
73
74
13
17
83
43
89
146
106
29
130
67
81
150
135
105
42
47
129
92
60
84
16
113
137
111
115
18
116
41
82
75
128
53
134
99
101
117
109
118
14
141
147
140
24
12
56
21
104
96
46
39
48
119
38
78
71
35
87
11
88
72
49
97
36
91
102
93
114
124
50
26
94
30
33
132
32
51
76
40
6
122
145
61
126
3
62
37
77
2
121
19
144
28
34
68
10
143
66
133
52
4
103
25
31
142
20
58
70
7
95
15
112
108
148

> <PUBCHEM_MMFF94_PARTIAL_CHARGES>
21
1 -0.68
11 0.45
12 -0.29
15 -0.29
16 0.28
17 0.14
2 -0.57
24 0.06
26 0.66
27 0.28
3 -0.68
35 0.15
4 -0.43
40 0.15
43 0.4
5 -0.57
55 0.4
6 0.06
7 0.14
8 0.28
9 0.06

> <PUBCHEM_EFFECTIVE_ROTOR_COUNT>
14.8

> <PUBCHEM_PHARMACOPHORE_FEATURES>
10
1 1 acceptor
1 1 donor
1 2 acceptor
1 25 hydrophobe
1 3 acceptor
1 3 donor
1 5 acceptor
3 10 13 14 hydrophobe
3 18 21 24 hydrophobe
5 6 7 8 9 11 rings

> <PUBCHEM_HEAVY_ATOM_COUNT>
27

> <PUBCHEM_ATOM_DEF_STEREO_COUNT>
3

> <PUBCHEM_ATOM_UDEF_STEREO_COUNT>
1

> <PUBCHEM_BOND_DEF_STEREO_COUNT>
1

> <PUBCHEM_BOND_UDEF_STEREO_COUNT>
0

> <PUBCHEM_ISOTOPIC_ATOM_COUNT>
0

> <PUBCHEM_COMPONENT_COUNT>
1

> <PUBCHEM_CACTVS_TAUTO_COUNT>
3

> <PUBCHEM_CONFORMER_ID>
00509A4D00000001

> <PUBCHEM_MMFF94_ENERGY>
33.059

> <PUBCHEM_FEATURE_SELFOVERLAP>
50.747

> <PUBCHEM_SHAPE_FINGERPRINT>
10411042 1 18193274083962116730
10951579 204 16733533907332774309
12107183 9 18124604072464990865
13111901 25 18059850719212538831
13533116 47 18412544327727880353
1361 2 18410011069584207289
13785724 45 18125167034679989775
13955234 65 18339920523313378896
13989917 61 18408887351985786755
15328684 2 17417546735360587675
15483637 11 17975698608147037483
15484559 13 18266752444686520748
17492 89 18337952268729625497
19427546 62 17975978988086688624
1979834 28 17703224010288058303
20771845 140 16845290532374717527
21197605 99 18339082708664891203
23558518 356 17404292388527813700
3421961 26 18337387154502895216
5309563 4 18265896852492667928

> <PUBCHEM_SHAPE_MULTIPOLES>
526.3
17.37
6.14
1.55
60.41
0.35
1.03
-5.64
-5.63
-12.96
0.48
-0.52
-2.04
-0.79

> <PUBCHEM_SHAPE_SELFOVERLAP>
1026.657

> <PUBCHEM_SHAPE_VOLUME>
318.4

> <PUBCHEM_COORDINATE_TYPE>
2
5
10

$$$$
