REMARK  7 active torsions:
REMARK  status: ('A' for Active; 'I' for Inactive)
REMARK    1  A    between atoms: N1_4  and  C6_12 
REMARK    2  A    between atoms: N2_5  and  C1_7 
REMARK    3  A    between atoms: C6_12  and  C7_13 
REMARK    4  A    between atoms: C7_13  and  C9_15 
REMARK    5  A    between atoms: C9_15  and  C11_17 
REMARK    6  A    between atoms: C11_17  and  C14_20 
REMARK    7  A    between atoms: C11_17  and  C15_21 
ROOT
ATOM      1  C6  UNK     1     -95.285  15.710  69.636  1.00  0.00     0.272 C 
ENDROOT
BRANCH   1   2
ATOM      2  N1  UNK     1     -95.496  15.216  68.275  1.00  0.00     0.088 N 
ATOM      3  C4  UNK     1     -95.710  16.336  67.348  1.00  0.00     0.274 C 
ATOM      4  C2  UNK     1     -95.984  15.834  65.929  1.00  0.00     0.056 C 
ATOM      5  C1  UNK     1     -94.858  14.927  65.434  1.00  0.00     0.098 C 
ATOM      6  C3  UNK     1     -94.590  13.814  66.449  1.00  0.00     0.056 C 
ATOM      7  C5  UNK     1     -94.362  14.383  67.850  1.00  0.00     0.274 C 
BRANCH   5   8
ATOM      8  N2  UNK     1     -95.169  14.383  64.137  1.00  0.00    -0.293 N 
ATOM      9  C8  UNK     1     -94.429  14.596  62.967  1.00  0.00     0.066 A 
ATOM     10  C12 UNK     1     -95.055  13.901  61.934  1.00  0.00     0.063 A 
ATOM     11  C13 UNK     1     -93.282  15.332  62.750  1.00  0.00     0.032 A 
ATOM     12  N3  UNK     1     -96.180  13.256  62.448  1.00  0.00    -0.306 N 
ATOM     13  C16 UNK     1     -94.575  13.906  60.643  1.00  0.00     0.032 A 
ATOM     14  C10 UNK     1     -96.278  13.543  63.840  1.00  0.00     0.328 A 
ATOM     15  H17 UNK     1     -96.816  12.682  61.909  1.00  0.00     0.171 HD
ATOM     16  O1  UNK     1     -97.143  13.141  64.606  1.00  0.00    -0.246 OA
ATOM     17  C18 UNK     1     -93.413  14.646  60.405  1.00  0.00     0.002 A 
ATOM     18  C17 UNK     1     -92.775  15.352  61.446  1.00  0.00     0.002 A 
ENDBRANCH   5   8
ENDBRANCH   1   2
BRANCH   1  19
ATOM     19  C7  UNK     1     -96.482  16.546  70.087  1.00  0.00     0.031 C 
BRANCH  19  20
ATOM     20  C9  UNK     1     -97.777  15.720  70.053  1.00  0.00     0.016 C 
BRANCH  20  21
ATOM     21  C11 UNK     1     -98.998  16.499  70.605  1.00  0.00     0.051 C 
BRANCH  21  22
ATOM     22  C14 UNK     1     -99.352  17.738  69.792  1.00  0.00    -0.049 A 
ATOM     23  C19 UNK     1     -98.771  18.943  70.129  1.00  0.00     0.011 A 
ATOM     24  C23 UNK     1     -99.095  20.077  69.386  1.00  0.00     0.043 A 
ATOM     25  C27 UNK     1     -99.992  19.982  68.322  1.00  0.00     0.116 A 
ATOM     26  F1  UNK     1    -100.304  21.071  67.608  1.00  0.00    -0.206 F 
ATOM     27  C25 UNK     1    -100.566  18.751  68.002  1.00  0.00     0.043 A 
ATOM     28  C21 UNK     1    -100.241  17.616  68.746  1.00  0.00     0.011 A 
ENDBRANCH  21  22
BRANCH  21  29
ATOM     29  C15 UNK     1    -100.223  15.615  70.823  1.00  0.00    -0.049 A 
ATOM     30  C20 UNK     1    -101.110  15.947  71.824  1.00  0.00     0.011 A 
ATOM     31  C24 UNK     1    -102.229  15.140  72.023  1.00  0.00     0.043 A 
ATOM     32  C28 UNK     1    -102.433  14.019  71.219  1.00  0.00     0.116 A 
ATOM     33  F2  UNK     1    -103.507  13.242  71.411  1.00  0.00    -0.206 F 
ATOM     34  C26 UNK     1    -101.518  13.706  70.213  1.00  0.00     0.043 A 
ATOM     35  C22 UNK     1    -100.398  14.515  70.014  1.00  0.00     0.011 A 
ENDBRANCH  21  29
ENDBRANCH  20  21
ENDBRANCH  19  20
ENDBRANCH   1  19
TORSDOF 7
