MODEL 1
REMARK VINA RESULT:      -7.7      0.000      0.000
REMARK  7 active torsions:
REMARK  status: ('A' for Active; 'I' for Inactive)
REMARK    1  A    between atoms: N1_4  and  C6_12 
REMARK    2  A    between atoms: N2_5  and  C1_7 
REMARK    3  A    between atoms: C6_12  and  C7_13 
REMARK    4  A    between atoms: C7_13  and  C9_15 
REMARK    5  A    between atoms: C9_15  and  C11_17 
REMARK    6  A    between atoms: C11_17  and  C14_20 
REMARK    7  A    between atoms: C11_17  and  C15_21 
ROOT
ATOM      1  C6  UNK     1       1.328  30.997 234.898  1.00  0.00     0.272 C 
ENDROOT
BRANCH   1   2
ATOM      2  N1  UNK     1       1.877  31.927 235.886  1.00  0.00     0.088 N 
ATOM      3  C4  UNK     1       3.027  32.651 235.327  1.00  0.00     0.274 C 
ATOM      4  C2  UNK     1       3.645  33.590 236.365  1.00  0.00     0.056 C 
ATOM      5  C1  UNK     1       2.607  34.565 236.920  1.00  0.00     0.098 C 
ATOM      6  C3  UNK     1       1.379  33.801 237.422  1.00  0.00     0.056 C 
ATOM      7  C5  UNK     1       0.836  32.856 236.349  1.00  0.00     0.274 C 
BRANCH   5   8
ATOM      8  N2  UNK     1       3.174  35.380 237.964  1.00  0.00    -0.293 N 
ATOM      9  C8  UNK     1       3.933  34.908 239.042  1.00  0.00     0.066 A 
ATOM     10  C12 UNK     1       4.293  36.005 239.822  1.00  0.00     0.063 A 
ATOM     11  C13 UNK     1       4.320  33.627 239.377  1.00  0.00     0.032 A 
ATOM     12  N3  UNK     1       3.764  37.158 239.242  1.00  0.00    -0.306 N 
ATOM     13  C16 UNK     1       5.048  35.882 240.967  1.00  0.00     0.032 A 
ATOM     14  C10 UNK     1       3.050  36.794 238.064  1.00  0.00     0.328 A 
ATOM     15  H17 UNK     1       3.876  38.095 239.608  1.00  0.00     0.171 HD
ATOM     16  O1  UNK     1       2.460  37.552 237.307  1.00  0.00    -0.246 OA
ATOM     17  C18 UNK     1       5.450  34.590 241.322  1.00  0.00     0.002 A 
ATOM     18  C17 UNK     1       5.088  33.476 240.537  1.00  0.00     0.002 A 
ENDBRANCH   5   8
ENDBRANCH   1   2
BRANCH   1  19
ATOM     19  C7  UNK     1       1.897  31.300 233.513  1.00  0.00     0.031 C 
BRANCH  19  20
ATOM     20  C9  UNK     1       0.836  31.945 232.608  1.00  0.00     0.016 C 
BRANCH  20  21
ATOM     21  C11 UNK     1       1.179  33.409 232.234  1.00  0.00     0.051 C 
BRANCH  21  22
ATOM     22  C14 UNK     1       0.968  33.730 230.759  1.00  0.00    -0.049 A 
ATOM     23  C19 UNK     1       1.477  34.908 230.255  1.00  0.00     0.011 A 
ATOM     24  C23 UNK     1       1.284  35.202 228.906  1.00  0.00     0.043 A 
ATOM     25  C27 UNK     1       0.587  34.312 228.090  1.00  0.00     0.116 A 
ATOM     26  F1  UNK     1       0.400  34.593 226.795  1.00  0.00    -0.206 F 
ATOM     27  C25 UNK     1       0.081  33.126 228.625  1.00  0.00     0.043 A 
ATOM     28  C21 UNK     1       0.275  32.832 229.976  1.00  0.00     0.011 A 
ENDBRANCH  21  22
BRANCH  21  29
ATOM     29  C15 UNK     1       0.482  34.434 233.125  1.00  0.00    -0.049 A 
ATOM     30  C20 UNK     1       1.229  35.456 233.669  1.00  0.00     0.011 A 
ATOM     31  C24 UNK     1       0.592  36.392 234.483  1.00  0.00     0.043 A 
ATOM     32  C28 UNK     1      -0.775  36.282 234.735  1.00  0.00     0.116 A 
ATOM     33  F2  UNK     1      -1.386  37.180 235.519  1.00  0.00    -0.206 F 
ATOM     34  C26 UNK     1      -1.506  35.236 234.172  1.00  0.00     0.043 A 
ATOM     35  C22 UNK     1      -0.868  34.300 233.357  1.00  0.00     0.011 A 
ENDBRANCH  21  29
ENDBRANCH  20  21
ENDBRANCH  19  20
ENDBRANCH   1  19
TORSDOF 7
ENDMDL
MODEL 2
REMARK VINA RESULT:      -7.6      5.022      7.200
REMARK  7 active torsions:
REMARK  status: ('A' for Active; 'I' for Inactive)
REMARK    1  A    between atoms: N1_4  and  C6_12 
REMARK    2  A    between atoms: N2_5  and  C1_7 
REMARK    3  A    between atoms: C6_12  and  C7_13 
REMARK    4  A    between atoms: C7_13  and  C9_15 
REMARK    5  A    between atoms: C9_15  and  C11_17 
REMARK    6  A    between atoms: C11_17  and  C14_20 
REMARK    7  A    between atoms: C11_17  and  C15_21 
ROOT
ATOM      1  C6  UNK     1      -1.802  35.974 229.937  1.00  0.00     0.272 C 
ENDROOT
BRANCH   1   2
ATOM      2  N1  UNK     1      -1.127  35.499 231.144  1.00  0.00     0.088 N 
ATOM      3  C4  UNK     1       0.324  35.417 230.925  1.00  0.00     0.274 C 
ATOM      4  C2  UNK     1       1.040  34.872 232.162  1.00  0.00     0.056 C 
ATOM      5  C1  UNK     1       0.725  35.710 233.400  1.00  0.00     0.098 C 
ATOM      6  C3  UNK     1      -0.789  35.857 233.569  1.00  0.00     0.056 C 
ATOM      7  C5  UNK     1      -1.444  36.369 232.286  1.00  0.00     0.274 C 
BRANCH   5   8
ATOM      8  N2  UNK     1       1.325  35.135 234.577  1.00  0.00    -0.293 N 
ATOM      9  C8  UNK     1       1.873  35.856 235.645  1.00  0.00     0.066 A 
ATOM     10  C12 UNK     1       2.348  34.938 236.580  1.00  0.00     0.063 A 
ATOM     11  C13 UNK     1       1.981  37.216 235.851  1.00  0.00     0.032 A 
ATOM     12  N3  UNK     1       2.102  33.650 236.105  1.00  0.00    -0.306 N 
ATOM     13  C16 UNK     1       2.952  35.326 237.756  1.00  0.00     0.032 A 
ATOM     14  C10 UNK     1       1.455  33.743 234.839  1.00  0.00     0.328 A 
ATOM     15  H17 UNK     1       2.349  32.796 236.590  1.00  0.00     0.171 HD
ATOM     16  O1  UNK     1       1.094  32.809 234.137  1.00  0.00    -0.246 OA
ATOM     17  C18 UNK     1       3.069  36.701 237.981  1.00  0.00     0.002 A 
ATOM     18  C17 UNK     1       2.591  37.635 237.038  1.00  0.00     0.002 A 
ENDBRANCH   5   8
ENDBRANCH   1   2
BRANCH   1  19
ATOM     19  C7  UNK     1      -1.768  37.500 229.877  1.00  0.00     0.031 C 
BRANCH  19  20
ATOM     20  C9  UNK     1      -1.185  37.988 228.542  1.00  0.00     0.016 C 
BRANCH  20  21
ATOM     21  C11 UNK     1      -1.353  39.516 228.339  1.00  0.00     0.051 C 
BRANCH  21  22
ATOM     22  C14 UNK     1      -0.032  40.267 228.227  1.00  0.00    -0.049 A 
ATOM     23  C19 UNK     1       0.122  41.447 228.924  1.00  0.00     0.011 A 
ATOM     24  C23 UNK     1       1.330  42.135 228.823  1.00  0.00     0.043 A 
ATOM     25  C27 UNK     1       2.358  41.628 228.027  1.00  0.00     0.116 A 
ATOM     26  F1  UNK     1       3.519  42.289 227.929  1.00  0.00    -0.206 F 
ATOM     27  C25 UNK     1       2.176  40.432 227.332  1.00  0.00     0.043 A 
ATOM     28  C21 UNK     1       0.967  39.744 227.435  1.00  0.00     0.011 A 
ENDBRANCH  21  22
BRANCH  21  29
ATOM     29  C15 UNK     1      -2.285  39.867 227.182  1.00  0.00    -0.049 A 
ATOM     30  C20 UNK     1      -2.130  41.082 226.552  1.00  0.00     0.011 A 
ATOM     31  C24 UNK     1      -2.981  41.403 225.495  1.00  0.00     0.043 A 
ATOM     32  C28 UNK     1      -3.968  40.503 225.096  1.00  0.00     0.116 A 
ATOM     33  F2  UNK     1      -4.787  40.811 224.082  1.00  0.00    -0.206 F 
ATOM     34  C26 UNK     1      -4.103  39.279 225.753  1.00  0.00     0.043 A 
ATOM     35  C22 UNK     1      -3.250  38.958 226.810  1.00  0.00     0.011 A 
ENDBRANCH  21  29
ENDBRANCH  20  21
ENDBRANCH  19  20
ENDBRANCH   1  19
TORSDOF 7
ENDMDL
MODEL 3
REMARK VINA RESULT:      -7.5      4.970      6.991
REMARK  7 active torsions:
REMARK  status: ('A' for Active; 'I' for Inactive)
REMARK    1  A    between atoms: N1_4  and  C6_12 
REMARK    2  A    between atoms: N2_5  and  C1_7 
REMARK    3  A    between atoms: C6_12  and  C7_13 
REMARK    4  A    between atoms: C7_13  and  C9_15 
REMARK    5  A    between atoms: C9_15  and  C11_17 
REMARK    6  A    between atoms: C11_17  and  C14_20 
REMARK    7  A    between atoms: C11_17  and  C15_21 
ROOT
ATOM      1  C6  UNK     1      -1.931  36.633 230.476  1.00  0.00     0.272 C 
ENDROOT
BRANCH   1   2
ATOM      2  N1  UNK     1      -0.898  36.420 231.489  1.00  0.00     0.088 N 
ATOM      3  C4  UNK     1      -1.508  36.130 232.794  1.00  0.00     0.274 C 
ATOM      4  C2  UNK     1      -0.441  35.956 233.877  1.00  0.00     0.056 C 
ATOM      5  C1  UNK     1       0.566  34.872 233.495  1.00  0.00     0.098 C 
ATOM      6  C3  UNK     1       1.131  35.142 232.099  1.00  0.00     0.056 C 
ATOM      7  C5  UNK     1       0.012  35.342 231.076  1.00  0.00     0.274 C 
BRANCH   5   8
ATOM      8  N2  UNK     1       1.619  34.782 234.473  1.00  0.00    -0.293 N 
ATOM      9  C8  UNK     1       2.182  33.593 234.955  1.00  0.00     0.066 A 
ATOM     10  C12 UNK     1       3.165  33.932 235.882  1.00  0.00     0.063 A 
ATOM     11  C13 UNK     1       1.902  32.277 234.648  1.00  0.00     0.032 A 
ATOM     12  N3  UNK     1       3.222  35.322 235.985  1.00  0.00    -0.306 N 
ATOM     13  C16 UNK     1       3.912  32.984 236.547  1.00  0.00     0.032 A 
ATOM     14  C10 UNK     1       2.255  35.887 235.104  1.00  0.00     0.328 A 
ATOM     15  H17 UNK     1       3.851  35.833 236.590  1.00  0.00     0.171 HD
ATOM     16  O1  UNK     1       2.031  37.078 234.938  1.00  0.00    -0.246 OA
ATOM     17  C18 UNK     1       3.643  31.645 236.248  1.00  0.00     0.002 A 
ATOM     18  C17 UNK     1       2.648  31.296 235.311  1.00  0.00     0.002 A 
ENDBRANCH   5   8
ENDBRANCH   1   2
BRANCH   1  19
ATOM     19  C7  UNK     1      -1.300  37.115 229.170  1.00  0.00     0.031 C 
BRANCH  19  20
ATOM     20  C9  UNK     1      -1.350  38.647 229.065  1.00  0.00     0.016 C 
BRANCH  20  21
ATOM     21  C11 UNK     1      -0.750  39.175 227.737  1.00  0.00     0.051 C 
BRANCH  21  22
ATOM     22  C14 UNK     1      -1.789  39.743 226.779  1.00  0.00    -0.049 A 
ATOM     23  C19 UNK     1      -1.418  40.755 225.918  1.00  0.00     0.011 A 
ATOM     24  C23 UNK     1      -2.368  41.275 225.041  1.00  0.00     0.043 A 
ATOM     25  C27 UNK     1      -3.669  40.772 225.043  1.00  0.00     0.116 A 
ATOM     26  F1  UNK     1      -4.583  41.271 224.201  1.00  0.00    -0.206 F 
ATOM     27  C25 UNK     1      -4.019  39.748 225.924  1.00  0.00     0.043 A 
ATOM     28  C21 UNK     1      -3.067  39.227 226.801  1.00  0.00     0.011 A 
ENDBRANCH  21  22
BRANCH  21  29
ATOM     29  C15 UNK     1       0.398  40.158 227.949  1.00  0.00    -0.049 A 
ATOM     30  C20 UNK     1       0.189  41.259 228.751  1.00  0.00     0.011 A 
ATOM     31  C24 UNK     1       1.238  42.157 228.945  1.00  0.00     0.043 A 
ATOM     32  C28 UNK     1       2.469  41.934 228.330  1.00  0.00     0.116 A 
ATOM     33  F2  UNK     1       3.477  42.797 228.515  1.00  0.00    -0.206 F 
ATOM     34  C26 UNK     1       2.653  40.812 227.522  1.00  0.00     0.043 A 
ATOM     35  C22 UNK     1       1.603  39.913 227.329  1.00  0.00     0.011 A 
ENDBRANCH  21  29
ENDBRANCH  20  21
ENDBRANCH  19  20
ENDBRANCH   1  19
TORSDOF 7
ENDMDL
MODEL 4
REMARK VINA RESULT:      -7.4      2.237      2.911
REMARK  7 active torsions:
REMARK  status: ('A' for Active; 'I' for Inactive)
REMARK    1  A    between atoms: N1_4  and  C6_12 
REMARK    2  A    between atoms: N2_5  and  C1_7 
REMARK    3  A    between atoms: C6_12  and  C7_13 
REMARK    4  A    between atoms: C7_13  and  C9_15 
REMARK    5  A    between atoms: C9_15  and  C11_17 
REMARK    6  A    between atoms: C11_17  and  C14_20 
REMARK    7  A    between atoms: C11_17  and  C15_21 
ROOT
ATOM      1  C6  UNK     1       1.607  30.684 234.368  1.00  0.00     0.272 C 
ENDROOT
BRANCH   1   2
ATOM      2  N1  UNK     1       2.214  31.436 235.467  1.00  0.00     0.088 N 
ATOM      3  C4  UNK     1       1.676  30.986 236.758  1.00  0.00     0.274 C 
ATOM      4  C2  UNK     1       2.262  31.798 237.914  1.00  0.00     0.056 C 
ATOM      5  C1  UNK     1       3.789  31.743 237.914  1.00  0.00     0.098 C 
ATOM      6  C3  UNK     1       4.332  32.134 236.538  1.00  0.00     0.056 C 
ATOM      7  C5  UNK     1       3.678  31.310 235.428  1.00  0.00     0.274 C 
BRANCH   5   8
ATOM      8  N2  UNK     1       4.335  32.587 238.946  1.00  0.00    -0.293 N 
ATOM      9  C8  UNK     1       4.214  33.981 239.005  1.00  0.00     0.066 A 
ATOM     10  C12 UNK     1       4.875  34.418 240.151  1.00  0.00     0.063 A 
ATOM     11  C13 UNK     1       3.585  34.866 238.153  1.00  0.00     0.032 A 
ATOM     12  N3  UNK     1       5.409  33.309 240.808  1.00  0.00    -0.306 N 
ATOM     13  C16 UNK     1       4.944  35.748 240.502  1.00  0.00     0.032 A 
ATOM     14  C10 UNK     1       5.083  32.136 240.069  1.00  0.00     0.328 A 
ATOM     15  H17 UNK     1       5.940  33.346 241.669  1.00  0.00     0.171 HD
ATOM     16  O1  UNK     1       5.391  30.987 240.355  1.00  0.00    -0.246 OA
ATOM     17  C18 UNK     1       4.312  36.659 239.651  1.00  0.00     0.002 A 
ATOM     18  C17 UNK     1       3.641  36.223 238.489  1.00  0.00     0.002 A 
ENDBRANCH   5   8
ENDBRANCH   1   2
BRANCH   1  19
ATOM     19  C7  UNK     1       1.187  31.632 233.246  1.00  0.00     0.031 C 
BRANCH  19  20
ATOM     20  C9  UNK     1       0.413  32.838 233.802  1.00  0.00     0.016 C 
BRANCH  20  21
ATOM     21  C11 UNK     1       1.073  34.192 233.438  1.00  0.00     0.051 C 
BRANCH  21  22
ATOM     22  C14 UNK     1       0.582  34.778 232.120  1.00  0.00    -0.049 A 
ATOM     23  C19 UNK     1       1.421  34.749 231.025  1.00  0.00     0.011 A 
ATOM     24  C23 UNK     1       0.973  35.285 229.820  1.00  0.00     0.043 A 
ATOM     25  C27 UNK     1      -0.305  35.838 229.734  1.00  0.00     0.116 A 
ATOM     26  F1  UNK     1      -0.737  36.354 228.576  1.00  0.00    -0.206 F 
ATOM     27  C25 UNK     1      -1.134  35.855 230.856  1.00  0.00     0.043 A 
ATOM     28  C21 UNK     1      -0.685  35.318 232.063  1.00  0.00     0.011 A 
ENDBRANCH  21  22
BRANCH  21  29
ATOM     29  C15 UNK     1       0.989  35.220 234.563  1.00  0.00    -0.049 A 
ATOM     30  C20 UNK     1       1.783  36.344 234.494  1.00  0.00     0.011 A 
ATOM     31  C24 UNK     1       1.706  37.283 235.522  1.00  0.00     0.043 A 
ATOM     32  C28 UNK     1       0.839  37.075 236.594  1.00  0.00     0.116 A 
ATOM     33  F2  UNK     1       0.766  37.976 237.582  1.00  0.00    -0.206 F 
ATOM     34  C26 UNK     1       0.047  35.927 236.638  1.00  0.00     0.043 A 
ATOM     35  C22 UNK     1       0.124  34.988 235.609  1.00  0.00     0.011 A 
ENDBRANCH  21  29
ENDBRANCH  20  21
ENDBRANCH  19  20
ENDBRANCH   1  19
TORSDOF 7
ENDMDL
MODEL 5
REMARK VINA RESULT:      -7.4      2.691      4.356
REMARK  7 active torsions:
REMARK  status: ('A' for Active; 'I' for Inactive)
REMARK    1  A    between atoms: N1_4  and  C6_12 
REMARK    2  A    between atoms: N2_5  and  C1_7 
REMARK    3  A    between atoms: C6_12  and  C7_13 
REMARK    4  A    between atoms: C7_13  and  C9_15 
REMARK    5  A    between atoms: C9_15  and  C11_17 
REMARK    6  A    between atoms: C11_17  and  C14_20 
REMARK    7  A    between atoms: C11_17  and  C15_21 
ROOT
ATOM      1  C6  UNK     1      -3.085  34.328 231.612  1.00  0.00     0.272 C 
ENDROOT
BRANCH   1   2
ATOM      2  N1  UNK     1      -2.178  34.759 232.676  1.00  0.00     0.088 N 
ATOM      3  C4  UNK     1      -1.591  36.067 232.353  1.00  0.00     0.274 C 
ATOM      4  C2  UNK     1      -0.600  36.509 233.431  1.00  0.00     0.056 C 
ATOM      5  C1  UNK     1      -1.255  36.534 234.811  1.00  0.00     0.098 C 
ATOM      6  C3  UNK     1      -1.934  35.193 235.099  1.00  0.00     0.056 C 
ATOM      7  C5  UNK     1      -2.881  34.796 233.966  1.00  0.00     0.274 C 
BRANCH   5   8
ATOM      8  N2  UNK     1      -0.292  36.858 235.832  1.00  0.00    -0.293 N 
ATOM      9  C8  UNK     1       0.935  36.211 236.027  1.00  0.00     0.066 A 
ATOM     10  C12 UNK     1       1.570  36.818 237.109  1.00  0.00     0.063 A 
ATOM     11  C13 UNK     1       1.516  35.161 235.346  1.00  0.00     0.032 A 
ATOM     12  N3  UNK     1       0.751  37.838 237.592  1.00  0.00    -0.306 N 
ATOM     13  C16 UNK     1       2.805  36.411 237.564  1.00  0.00     0.032 A 
ATOM     14  C10 UNK     1      -0.435  37.887 236.803  1.00  0.00     0.328 A 
ATOM     15  H17 UNK     1       0.973  38.438 238.376  1.00  0.00     0.171 HD
ATOM     16  O1  UNK     1      -1.371  38.662 236.946  1.00  0.00    -0.246 OA
ATOM     17  C18 UNK     1       3.409  35.349 236.884  1.00  0.00     0.002 A 
ATOM     18  C17 UNK     1       2.771  34.730 235.789  1.00  0.00     0.002 A 
ENDBRANCH   5   8
ENDBRANCH   1   2
BRANCH   1  19
ATOM     19  C7  UNK     1      -2.358  33.399 230.641  1.00  0.00     0.031 C 
BRANCH  19  20
ATOM     20  C9  UNK     1      -1.929  32.098 231.337  1.00  0.00     0.016 C 
BRANCH  20  21
ATOM     21  C11 UNK     1      -0.399  31.863 231.275  1.00  0.00     0.051 C 
BRANCH  21  22
ATOM     22  C14 UNK     1       0.349  32.912 230.461  1.00  0.00    -0.049 A 
ATOM     23  C19 UNK     1       0.487  32.723 229.101  1.00  0.00     0.011 A 
ATOM     24  C23 UNK     1       1.172  33.682 228.356  1.00  0.00     0.043 A 
ATOM     25  C27 UNK     1       1.703  34.808 228.985  1.00  0.00     0.116 A 
ATOM     26  F1  UNK     1       2.361  35.729 228.270  1.00  0.00    -0.206 F 
ATOM     27  C25 UNK     1       1.549  34.974 230.362  1.00  0.00     0.043 A 
ATOM     28  C21 UNK     1       0.864  34.015 231.108  1.00  0.00     0.011 A 
ENDBRANCH  21  22
BRANCH  21  29
ATOM     29  C15 UNK     1       0.234  31.681 232.652  1.00  0.00    -0.049 A 
ATOM     30  C20 UNK     1       1.541  31.250 232.729  1.00  0.00     0.011 A 
ATOM     31  C24 UNK     1       2.119  31.084 233.987  1.00  0.00     0.043 A 
ATOM     32  C28 UNK     1       1.377  31.350 235.137  1.00  0.00     0.116 A 
ATOM     33  F2  UNK     1       1.932  31.189 236.345  1.00  0.00    -0.206 F 
ATOM     34  C26 UNK     1       0.056  31.786 235.029  1.00  0.00     0.043 A 
ATOM     35  C22 UNK     1      -0.523  31.952 233.770  1.00  0.00     0.011 A 
ENDBRANCH  21  29
ENDBRANCH  20  21
ENDBRANCH  19  20
ENDBRANCH   1  19
TORSDOF 7
ENDMDL
MODEL 6
REMARK VINA RESULT:      -7.4      3.142      4.923
REMARK  7 active torsions:
REMARK  status: ('A' for Active; 'I' for Inactive)
REMARK    1  A    between atoms: N1_4  and  C6_12 
REMARK    2  A    between atoms: N2_5  and  C1_7 
REMARK    3  A    between atoms: C6_12  and  C7_13 
REMARK    4  A    between atoms: C7_13  and  C9_15 
REMARK    5  A    between atoms: C9_15  and  C11_17 
REMARK    6  A    between atoms: C11_17  and  C14_20 
REMARK    7  A    between atoms: C11_17  and  C15_21 
ROOT
ATOM      1  C6  UNK     1      -2.274  36.148 232.299  1.00  0.00     0.272 C 
ENDROOT
BRANCH   1   2
ATOM      2  N1  UNK     1      -1.458  35.699 233.428  1.00  0.00     0.088 N 
ATOM      3  C4  UNK     1      -0.030  35.758 233.086  1.00  0.00     0.274 C 
ATOM      4  C2  UNK     1       0.835  35.243 234.238  1.00  0.00     0.056 C 
ATOM      5  C1  UNK     1       0.554  36.011 235.530  1.00  0.00     0.098 C 
ATOM      6  C3  UNK     1      -0.946  36.013 235.828  1.00  0.00     0.056 C 
ATOM      7  C5  UNK     1      -1.752  36.502 234.624  1.00  0.00     0.274 C 
BRANCH   5   8
ATOM      8  N2  UNK     1       1.302  35.457 236.630  1.00  0.00    -0.293 N 
ATOM      9  C8  UNK     1       2.397  36.065 237.256  1.00  0.00     0.066 A 
ATOM     10  C12 UNK     1       2.836  35.214 238.268  1.00  0.00     0.063 A 
ATOM     11  C13 UNK     1       3.016  37.274 237.010  1.00  0.00     0.032 A 
ATOM     12  N3  UNK     1       2.025  34.079 238.280  1.00  0.00    -0.306 N 
ATOM     13  C16 UNK     1       3.907  35.520 239.079  1.00  0.00     0.032 A 
ATOM     14  C10 UNK     1       1.045  34.205 237.253  1.00  0.00     0.328 A 
ATOM     15  H17 UNK     1       2.128  33.300 238.917  1.00  0.00     0.171 HD
ATOM     16  O1  UNK     1       0.171  33.394 236.979  1.00  0.00    -0.246 OA
ATOM     17  C18 UNK     1       4.546  36.741 238.844  1.00  0.00     0.002 A 
ATOM     18  C17 UNK     1       4.107  37.607 237.821  1.00  0.00     0.002 A 
ENDBRANCH   5   8
ENDBRANCH   1   2
BRANCH   1  19
ATOM     19  C7  UNK     1      -2.618  34.966 231.393  1.00  0.00     0.031 C 
BRANCH  19  20
ATOM     20  C9  UNK     1      -2.671  35.398 229.919  1.00  0.00     0.016 C 
BRANCH  20  21
ATOM     21  C11 UNK     1      -1.470  36.289 229.513  1.00  0.00     0.051 C 
BRANCH  21  22
ATOM     22  C14 UNK     1      -0.333  35.520 228.851  1.00  0.00    -0.049 A 
ATOM     23  C19 UNK     1       0.894  35.475 229.480  1.00  0.00     0.011 A 
ATOM     24  C23 UNK     1       1.934  34.772 228.874  1.00  0.00     0.043 A 
ATOM     25  C27 UNK     1       1.725  34.129 227.654  1.00  0.00     0.116 A 
ATOM     26  F1  UNK     1       2.724  33.454 227.071  1.00  0.00    -0.206 F 
ATOM     27  C25 UNK     1       0.474  34.191 227.039  1.00  0.00     0.043 A 
ATOM     28  C21 UNK     1      -0.567  34.894 227.646  1.00  0.00     0.011 A 
ENDBRANCH  21  22
BRANCH  21  29
ATOM     29  C15 UNK     1      -1.878  37.498 228.676  1.00  0.00    -0.049 A 
ATOM     30  C20 UNK     1      -0.968  38.517 228.496  1.00  0.00     0.011 A 
ATOM     31  C24 UNK     1      -1.340  39.621 227.731  1.00  0.00     0.043 A 
ATOM     32  C28 UNK     1      -2.614  39.681 227.166  1.00  0.00     0.116 A 
ATOM     33  F2  UNK     1      -2.973  40.743 226.432  1.00  0.00    -0.206 F 
ATOM     34  C26 UNK     1      -3.516  38.635 227.365  1.00  0.00     0.043 A 
ATOM     35  C22 UNK     1      -3.142  37.530 228.131  1.00  0.00     0.011 A 
ENDBRANCH  21  29
ENDBRANCH  20  21
ENDBRANCH  19  20
ENDBRANCH   1  19
TORSDOF 7
ENDMDL
MODEL 7
REMARK VINA RESULT:      -7.4      5.083      9.803
REMARK  7 active torsions:
REMARK  status: ('A' for Active; 'I' for Inactive)
REMARK    1  A    between atoms: N1_4  and  C6_12 
REMARK    2  A    between atoms: N2_5  and  C1_7 
REMARK    3  A    between atoms: C6_12  and  C7_13 
REMARK    4  A    between atoms: C7_13  and  C9_15 
REMARK    5  A    between atoms: C9_15  and  C11_17 
REMARK    6  A    between atoms: C11_17  and  C14_20 
REMARK    7  A    between atoms: C11_17  and  C15_21 
ROOT
ATOM      1  C6  UNK     1       0.188  33.840 231.281  1.00  0.00     0.272 C 
ENDROOT
BRANCH   1   2
ATOM      2  N1  UNK     1      -0.546  34.764 230.415  1.00  0.00     0.088 N 
ATOM      3  C4  UNK     1      -1.100  35.876 231.200  1.00  0.00     0.274 C 
ATOM      4  C2  UNK     1      -1.914  36.824 230.317  1.00  0.00     0.056 C 
ATOM      5  C1  UNK     1      -1.080  37.347 229.148  1.00  0.00     0.098 C 
ATOM      6  C3  UNK     1      -0.442  36.181 228.390  1.00  0.00     0.056 C 
ATOM      7  C5  UNK     1       0.324  35.255 229.337  1.00  0.00     0.274 C 
BRANCH   5   8
ATOM      8  N2  UNK     1      -1.880  38.161 228.270  1.00  0.00    -0.293 N 
ATOM      9  C8  UNK     1      -1.487  39.384 227.712  1.00  0.00     0.066 A 
ATOM     10  C12 UNK     1      -2.538  39.851 226.925  1.00  0.00     0.063 A 
ATOM     11  C13 UNK     1      -0.311  40.095 227.841  1.00  0.00     0.032 A 
ATOM     12  N3  UNK     1      -3.585  38.931 226.987  1.00  0.00    -0.306 N 
ATOM     13  C16 UNK     1      -2.472  41.041 226.234  1.00  0.00     0.032 A 
ATOM     14  C10 UNK     1      -3.197  37.851 227.831  1.00  0.00     0.328 A 
ATOM     15  H17 UNK     1      -4.471  39.028 226.507  1.00  0.00     0.171 HD
ATOM     16  O1  UNK     1      -3.870  36.868 228.109  1.00  0.00    -0.246 OA
ATOM     17  C18 UNK     1      -1.287  41.774 226.352  1.00  0.00     0.002 A 
ATOM     18  C17 UNK     1      -0.220  41.307 227.148  1.00  0.00     0.002 A 
ENDBRANCH   5   8
ENDBRANCH   1   2
BRANCH   1  19
ATOM     19  C7  UNK     1       1.069  34.618 232.259  1.00  0.00     0.031 C 
BRANCH  19  20
ATOM     20  C9  UNK     1       1.191  33.879 233.600  1.00  0.00     0.016 C 
BRANCH  20  21
ATOM     21  C11 UNK     1       2.069  34.641 234.625  1.00  0.00     0.051 C 
BRANCH  21  22
ATOM     22  C14 UNK     1       1.309  35.696 235.418  1.00  0.00    -0.049 A 
ATOM     23  C19 UNK     1       1.911  36.915 235.651  1.00  0.00     0.011 A 
ATOM     24  C23 UNK     1       1.216  37.881 236.377  1.00  0.00     0.043 A 
ATOM     25  C27 UNK     1      -0.066  37.608 236.853  1.00  0.00     0.116 A 
ATOM     26  F1  UNK     1      -0.734  38.536 237.551  1.00  0.00    -0.206 F 
ATOM     27  C25 UNK     1      -0.653  36.367 236.604  1.00  0.00     0.043 A 
ATOM     28  C21 UNK     1       0.044  35.400 235.877  1.00  0.00     0.011 A 
ENDBRANCH  21  22
BRANCH  21  29
ATOM     29  C15 UNK     1       2.850  33.712 235.551  1.00  0.00    -0.049 A 
ATOM     30  C20 UNK     1       2.977  32.385 235.205  1.00  0.00     0.011 A 
ATOM     31  C24 UNK     1       3.690  31.537 236.051  1.00  0.00     0.043 A 
ATOM     32  C28 UNK     1       4.256  32.035 237.224  1.00  0.00     0.116 A 
ATOM     33  F2  UNK     1       4.939  31.220 238.038  1.00  0.00    -0.206 F 
ATOM     34  C26 UNK     1       4.110  33.384 237.551  1.00  0.00     0.043 A 
ATOM     35  C22 UNK     1       3.397  34.233 236.703  1.00  0.00     0.011 A 
ENDBRANCH  21  29
ENDBRANCH  20  21
ENDBRANCH  19  20
ENDBRANCH   1  19
TORSDOF 7
ENDMDL
MODEL 8
REMARK VINA RESULT:      -7.3      4.758      9.657
REMARK  7 active torsions:
REMARK  status: ('A' for Active; 'I' for Inactive)
REMARK    1  A    between atoms: N1_4  and  C6_12 
REMARK    2  A    between atoms: N2_5  and  C1_7 
REMARK    3  A    between atoms: C6_12  and  C7_13 
REMARK    4  A    between atoms: C7_13  and  C9_15 
REMARK    5  A    between atoms: C9_15  and  C11_17 
REMARK    6  A    between atoms: C11_17  and  C14_20 
REMARK    7  A    between atoms: C11_17  and  C15_21 
ROOT
ATOM      1  C6  UNK     1       0.411  34.355 232.951  1.00  0.00     0.272 C 
ENDROOT
BRANCH   1   2
ATOM      2  N1  UNK     1      -0.415  34.937 231.894  1.00  0.00     0.088 N 
ATOM      3  C4  UNK     1      -1.032  36.190 232.353  1.00  0.00     0.274 C 
ATOM      4  C2  UNK     1      -1.941  36.785 231.276  1.00  0.00     0.056 C 
ATOM      5  C1  UNK     1      -1.183  37.001 229.967  1.00  0.00     0.098 C 
ATOM      6  C3  UNK     1      -0.477  35.711 229.545  1.00  0.00     0.056 C 
ATOM      7  C5  UNK     1       0.383  35.152 230.678  1.00  0.00     0.274 C 
BRANCH   5   8
ATOM      8  N2  UNK     1      -2.068  37.472 228.932  1.00  0.00    -0.293 N 
ATOM      9  C8  UNK     1      -1.956  38.696 228.260  1.00  0.00     0.066 A 
ATOM     10  C12 UNK     1      -2.998  38.773 227.339  1.00  0.00     0.063 A 
ATOM     11  C13 UNK     1      -1.034  39.714 228.395  1.00  0.00     0.032 A 
ATOM     12  N3  UNK     1      -3.761  37.609 227.429  1.00  0.00    -0.306 N 
ATOM     13  C16 UNK     1      -3.175  39.861 226.513  1.00  0.00     0.032 A 
ATOM     14  C10 UNK     1      -3.197  36.766 228.430  1.00  0.00     0.328 A 
ATOM     15  H17 UNK     1      -4.581  37.408 226.871  1.00  0.00     0.171 HD
ATOM     16  O1  UNK     1      -3.610  35.667 228.772  1.00  0.00    -0.246 OA
ATOM     17  C18 UNK     1      -2.250  40.902 226.635  1.00  0.00     0.002 A 
ATOM     18  C17 UNK     1      -1.193  40.830 227.566  1.00  0.00     0.002 A 
ENDBRANCH   5   8
ENDBRANCH   1   2
BRANCH   1  19
ATOM     19  C7  UNK     1       1.480  35.351 233.397  1.00  0.00     0.031 C 
BRANCH  19  20
ATOM     20  C9  UNK     1       1.958  35.047 234.825  1.00  0.00     0.016 C 
BRANCH  20  21
ATOM     21  C11 UNK     1       1.728  36.233 235.797  1.00  0.00     0.051 C 
BRANCH  21  22
ATOM     22  C14 UNK     1       0.295  36.342 236.302  1.00  0.00    -0.049 A 
ATOM     23  C19 UNK     1      -0.205  37.587 236.621  1.00  0.00     0.011 A 
ATOM     24  C23 UNK     1      -1.516  37.688 237.083  1.00  0.00     0.043 A 
ATOM     25  C27 UNK     1      -2.299  36.541 237.216  1.00  0.00     0.116 A 
ATOM     26  F1  UNK     1      -3.559  36.637 237.660  1.00  0.00    -0.206 F 
ATOM     27  C25 UNK     1      -1.770  35.293 236.886  1.00  0.00     0.043 A 
ATOM     28  C21 UNK     1      -0.457  35.193 236.423  1.00  0.00     0.011 A 
ENDBRANCH  21  22
BRANCH  21  29
ATOM     29  C15 UNK     1       2.723  36.258 236.955  1.00  0.00    -0.049 A 
ATOM     30  C20 UNK     1       3.359  37.443 237.255  1.00  0.00     0.011 A 
ATOM     31  C24 UNK     1       4.267  37.466 238.313  1.00  0.00     0.043 A 
ATOM     32  C28 UNK     1       4.520  36.305 239.042  1.00  0.00     0.116 A 
ATOM     33  F2  UNK     1       5.394  36.327 240.057  1.00  0.00    -0.206 F 
ATOM     34  C26 UNK     1       3.861  35.119 238.715  1.00  0.00     0.043 A 
ATOM     35  C22 UNK     1       2.952  35.096 237.657  1.00  0.00     0.011 A 
ENDBRANCH  21  29
ENDBRANCH  20  21
ENDBRANCH  19  20
ENDBRANCH   1  19
TORSDOF 7
ENDMDL
MODEL 9
REMARK VINA RESULT:      -7.3      3.412      5.587
REMARK  7 active torsions:
REMARK  status: ('A' for Active; 'I' for Inactive)
REMARK    1  A    between atoms: N1_4  and  C6_12 
REMARK    2  A    between atoms: N2_5  and  C1_7 
REMARK    3  A    between atoms: C6_12  and  C7_13 
REMARK    4  A    between atoms: C7_13  and  C9_15 
REMARK    5  A    between atoms: C9_15  and  C11_17 
REMARK    6  A    between atoms: C11_17  and  C14_20 
REMARK    7  A    between atoms: C11_17  and  C15_21 
ROOT
ATOM      1  C6  UNK     1      -3.621  34.604 231.729  1.00  0.00     0.272 C 
ENDROOT
BRANCH   1   2
ATOM      2  N1  UNK     1      -2.607  34.950 232.726  1.00  0.00     0.088 N 
ATOM      3  C4  UNK     1      -2.054  36.285 232.456  1.00  0.00     0.274 C 
ATOM      4  C2  UNK     1      -0.955  36.640 233.459  1.00  0.00     0.056 C 
ATOM      5  C1  UNK     1      -1.464  36.544 234.897  1.00  0.00     0.098 C 
ATOM      6  C3  UNK     1      -2.111  35.179 235.139  1.00  0.00     0.056 C 
ATOM      7  C5  UNK     1      -3.172  34.872 234.080  1.00  0.00     0.274 C 
BRANCH   5   8
ATOM      8  N2  UNK     1      -0.399  36.786 235.836  1.00  0.00    -0.293 N 
ATOM      9  C8  UNK     1       0.788  36.047 235.929  1.00  0.00     0.066 A 
ATOM     10  C12 UNK     1       1.553  36.597 236.956  1.00  0.00     0.063 A 
ATOM     11  C13 UNK     1       1.231  34.962 235.201  1.00  0.00     0.032 A 
ATOM     12  N3  UNK     1       0.855  37.672 237.506  1.00  0.00    -0.306 N 
ATOM     13  C16 UNK     1       2.786  36.095 237.308  1.00  0.00     0.032 A 
ATOM     14  C10 UNK     1      -0.384  37.816 236.817  1.00  0.00     0.328 A 
ATOM     15  H17 UNK     1       1.185  38.247 238.271  1.00  0.00     0.171 HD
ATOM     16  O1  UNK     1      -1.245  38.657 237.037  1.00  0.00    -0.246 OA
ATOM     17  C18 UNK     1       3.251  34.996 236.580  1.00  0.00     0.002 A 
ATOM     18  C17 UNK     1       2.482  34.435 235.539  1.00  0.00     0.002 A 
ENDBRANCH   5   8
ENDBRANCH   1   2
BRANCH   1  19
ATOM     19  C7  UNK     1      -2.956  34.072 230.460  1.00  0.00     0.031 C 
BRANCH  19  20
ATOM     20  C9  UNK     1      -3.119  35.060 229.295  1.00  0.00     0.016 C 
BRANCH  20  21
ATOM     21  C11 UNK     1      -1.946  36.068 229.196  1.00  0.00     0.051 C 
BRANCH  21  22
ATOM     22  C14 UNK     1      -0.639  35.442 228.725  1.00  0.00    -0.049 A 
ATOM     23  C19 UNK     1      -0.608  34.813 227.498  1.00  0.00     0.011 A 
ATOM     24  C23 UNK     1       0.587  34.239 227.067  1.00  0.00     0.043 A 
ATOM     25  C27 UNK     1       1.725  34.307 227.871  1.00  0.00     0.116 A 
ATOM     26  F1  UNK     1       2.873  33.756 227.458  1.00  0.00    -0.206 F 
ATOM     27  C25 UNK     1       1.666  34.949 229.109  1.00  0.00     0.043 A 
ATOM     28  C21 UNK     1       0.470  35.524 229.540  1.00  0.00     0.011 A 
ENDBRANCH  21  22
BRANCH  21  29
ATOM     29  C15 UNK     1      -2.290  37.308 228.376  1.00  0.00    -0.049 A 
ATOM     30  C20 UNK     1      -3.418  37.287 227.585  1.00  0.00     0.011 A 
ATOM     31  C24 UNK     1      -3.733  38.419 226.835  1.00  0.00     0.043 A 
ATOM     32  C28 UNK     1      -2.910  39.544 226.892  1.00  0.00     0.116 A 
ATOM     33  F2  UNK     1      -3.211  40.632 226.171  1.00  0.00    -0.206 F 
ATOM     34  C26 UNK     1      -1.773  39.537 227.701  1.00  0.00     0.043 A 
ATOM     35  C22 UNK     1      -1.459  38.403 228.451  1.00  0.00     0.011 A 
ENDBRANCH  21  29
ENDBRANCH  20  21
ENDBRANCH  19  20
ENDBRANCH   1  19
TORSDOF 7
ENDMDL
