REMARK  7 active torsions:
REMARK  status: ('A' for Active; 'I' for Inactive)
REMARK    1  A    between atoms: C2_6  and  C21_2 
REMARK       I    between atoms: C21_2  and  N2_3 
REMARK    2  A    between atoms: C3_9  and  O2_10 
REMARK    3  A    between atoms: C4_12  and  N1_13 
REMARK    4  A    between atoms: C18_17  and  O7_18 
REMARK    5  A    between atoms: C17_20  and  O6_21 
REMARK    6  A    between atoms: C13_31  and  O4_32 
REMARK    7  A    between atoms: C10_36  and  N7_37 
ROOT
HETATM    1  C2  MIY  5181       3.831  -0.022   1.139  1.00 20.00     0.116 C 
HETATM    2  C1  MIY  5181       2.650  -0.895   0.945  1.00 20.00     0.209 C 
HETATM    3  O1  MIY  5181       2.377  -1.714   1.800  1.00 20.00    -0.288 OA
HETATM    4  C3  MIY  5181       4.067   0.968   0.226  1.00 20.00     0.108 C 
HETATM    5  C4  MIY  5181       3.090   1.363  -0.927  1.00 20.00     0.049 C 
HETATM    6  C5  MIY  5181       1.706   0.630  -0.900  1.00 20.00     0.088 C 
HETATM    7  C18 MIY  5181       1.819  -0.806  -0.360  1.00 20.00     0.180 C 
HETATM    8  C17 MIY  5181       0.401  -1.413  -0.408  1.00 20.00     0.097 C 
HETATM    9  C16 MIY  5181      -0.773  -0.746  -0.512  1.00 20.00     0.030 C 
HETATM   10  C7  MIY  5181      -0.850   0.752  -0.630  1.00 20.00     0.030 C 
HETATM   11  C6  MIY  5181       0.513   1.398  -0.285  1.00 20.00     0.024 C 
HETATM   12  C15 MIY  5181      -2.020  -1.542  -0.484  1.00 20.00     0.194 C 
HETATM   13  O5  MIY  5181      -2.070  -2.779  -0.550  1.00 20.00    -0.287 OA
HETATM   14  C14 MIY  5181      -3.307  -0.851  -0.242  1.00 20.00     0.056 A 
HETATM   15  C9  MIY  5181      -3.303   0.477   0.176  1.00 20.00    -0.019 A 
HETATM   16  C8  MIY  5181      -1.965   1.224   0.334  1.00 20.00     0.051 C 
HETATM   17  C13 MIY  5181      -4.467  -1.601  -0.403  1.00 20.00     0.080 A 
HETATM   18  C12 MIY  5181      -5.701  -1.007  -0.149  1.00 20.00     0.039 A 
HETATM   19  C11 MIY  5181      -5.726   0.322   0.274  1.00 20.00     0.027 A 
HETATM   20  C10 MIY  5181      -4.547   1.067   0.437  1.00 20.00     0.017 A 
ENDROOT
BRANCH   1  21
HETATM   21  C21 MIY  5181       4.721  -0.236   2.321  1.00 20.00     0.256 C 
HETATM   22  O8  MIY  5181       5.811  -0.822   2.225  1.00 20.00    -0.268 OA
HETATM   23  N2  MIY  5181       4.238   0.237   3.492  1.00 20.00    -0.366 N 
ATOM     24  H22 MIY  5181       3.342   0.719   3.571  1.00  0.00     0.159 HD
ATOM     25  H21 MIY  5181       4.845   0.091   4.298  1.00  0.00     0.159 HD
ENDBRANCH   1  21
BRANCH   4  26
HETATM   26  O2  MIY  5181       5.212   1.665   0.335  1.00 20.00    -0.358 OA
ATOM     27  H2  MIY  5181       5.376   2.353  -0.299  1.00  0.00     0.217 HD
ENDBRANCH   4  26
BRANCH   7  28
HETATM   28  O7  MIY  5181       2.534  -1.584  -1.331  1.00 20.00    -0.374 OA
ATOM     29  H7  MIY  5181       2.025  -1.529  -2.131  1.00  0.00     0.211 HD
ENDBRANCH   7  28
BRANCH   5  30
HETATM   30  N1  MIY  5181       3.778   1.483  -2.320  1.00 20.00    -0.390 N 
HETATM   31  C19 MIY  5181       4.538   0.321  -2.851  1.00 20.00     0.149 C 
HETATM   32  C20 MIY  5181       2.981   2.080  -3.444  1.00 20.00     0.149 C 
ENDBRANCH   5  30
BRANCH   8  33
HETATM   33  O6  MIY  5181       0.317  -2.753  -0.443  1.00 20.00    -0.361 OA
ATOM     34  H6  MIY  5181       1.141  -3.221  -0.370  1.00  0.00     0.217 HD
ENDBRANCH   8  33
BRANCH  17  35
HETATM   35  O4  MIY  5181      -4.369  -2.912  -0.823  1.00 20.00    -0.360 OA
ATOM     36  H4  MIY  5181      -3.527  -3.317  -0.996  1.00  0.00     0.217 HD
ENDBRANCH  17  35
BRANCH  20  37
HETATM   37  N7  MIY  5181      -4.645   2.370   0.913  1.00 20.00    -0.291 NA
HETATM   38  C71 MIY  5181      -5.665   3.140   0.171  1.00 20.00     0.116 C 
HETATM   39  CN7 MIY  5181      -5.173   2.186   2.271  1.00 20.00     0.116 C 
ENDBRANCH  20  37
TORSDOF 7
