REMARK  4 active torsions:
REMARK  status: ('A' for Active; 'I' for Inactive)
REMARK    1  A    between atoms: C1_2  and  O2_3 
REMARK    2  A    between atoms: C1_2  and  C2_4 
REMARK    3  A    between atoms: C7_9  and  N1_10 
REMARK    4  A    between atoms: N1_10  and  C8_11 
ROOT
ATOM      1  C2  UNK     1       7.899   7.611  24.879  1.00  0.00     0.064 A 
ATOM      2  C3  UNK     1       7.547   7.330  26.204  1.00  0.00     0.020 A 
ATOM      3  C4  UNK     1       8.080   6.225  26.863  1.00  0.00     0.001 A 
ATOM      4  C5  UNK     1       8.973   5.373  26.218  1.00  0.00     0.002 A 
ATOM      5  C6  UNK     1       9.357   5.602  24.891  1.00  0.00     0.030 A 
ATOM      6  C7  UNK     1       8.844   6.686  24.146  1.00  0.00     0.049 A 
ENDROOT
BRANCH   6   7
ATOM      7  N1  UNK     1       9.149   7.003  22.829  1.00  0.00    -0.355 N 
ATOM      8  H6  UNK     1       8.616   7.688  22.332  1.00  0.00     0.166 HD
BRANCH   7   9
ATOM      9  C8  UNK     1      10.188   6.363  22.228  1.00  0.00     0.039 A 
ATOM     10  C9  UNK     1      10.205   4.873  22.033  1.00  0.00    -0.029 A 
ATOM     11  C10 UNK     1       8.963   4.028  22.216  1.00  0.00     0.051 C 
ATOM     12  C14 UNK     1      11.490   4.236  21.617  1.00  0.00    -0.054 A 
ATOM     13  C13 UNK     1      12.625   5.029  21.450  1.00  0.00     0.007 A 
ATOM     14  C15 UNK     1      11.579   2.752  21.369  1.00  0.00     0.049 C 
ATOM     15  C12 UNK     1      12.573   6.406  21.674  1.00  0.00     0.003 A 
ATOM     16  C11 UNK     1      11.394   7.055  22.070  1.00  0.00     0.030 A 
ENDBRANCH   7   9
ENDBRANCH   6   7
BRANCH   1  17
ATOM     17  C1  UNK     1       7.280   8.824  24.193  1.00  0.00     0.178 C 
ATOM     18  O1  UNK     1       6.094   9.142  24.463  1.00  0.00    -0.646 OA
BRANCH  17  19
ATOM     19  O2  UNK     1       7.938   9.486  23.346  1.00  0.00    -0.773 OA
ATOM     20  H1  UNK     1       7.398  10.189  23.004  1.00  0.00     0.167 HD
ENDBRANCH  17  19
ENDBRANCH   1  17
TORSDOF 4
