MODEL 1
REMARK VINA RESULT:      -6.6      0.000      0.000
REMARK  11 active torsions:
REMARK  status: ('A' for Active; 'I' for Inactive)
REMARK    1  A    between atoms: O1_1  and  C7_16 
REMARK    2  A    between atoms: O1_1  and  C14_23 
REMARK    3  A    between atoms: O2_2  and  C11_20 
REMARK    4  A    between atoms: N2_8  and  C13_22 
REMARK    5  A    between atoms: N2_8  and  C17_26 
REMARK    6  A    between atoms: N3_9  and  C15_24 
REMARK    7  A    between atoms: C1_10  and  C4_13 
REMARK    8  A    between atoms: C2_11  and  C7_16 
REMARK    9  A    between atoms: C3_12  and  C11_20 
REMARK   10  A    between atoms: C13_22  and  C14_23 
REMARK   11  A    between atoms: C17_26  and  C19_28 
ROOT
ATOM      1  N1  UNK     1       1.039  37.735 237.048  1.00  0.00    -0.362 N 
ATOM      2  C1  UNK     1       0.601  34.967 236.631  1.00  0.00     0.101 C 
ATOM      3  C2  UNK     1       1.960  35.556 237.027  1.00  0.00     0.052 C 
ATOM      4  C3  UNK     1      -0.524  36.006 236.645  1.00  0.00     0.052 C 
ATOM      5  C5  UNK     1       2.123  36.886 237.202  1.00  0.00     0.018 C 
ATOM      6  C6  UNK     1      -0.264  37.321 236.821  1.00  0.00     0.018 C 
ATOM      7  C10 UNK     1       3.418  37.568 237.553  1.00  0.00     0.069 C 
ATOM      8  C12 UNK     1      -1.286  38.424 236.799  1.00  0.00     0.069 C 
ATOM      9  H2  UNK     1       1.200  38.728 237.171  1.00  0.00     0.165 HD
ENDROOT
BRANCH   3  10
ATOM     10  C7  UNK     1       3.049  34.595 237.268  1.00  0.00     0.292 C 
ATOM     11  O3  UNK     1       3.879  34.300 236.427  1.00  0.00    -0.259 OA
BRANCH  10  12
ATOM     12  O1  UNK     1       2.942  34.136 238.537  1.00  0.00    -0.316 OA
BRANCH  12  13
ATOM     13  C14 UNK     1       3.922  34.640 239.450  1.00  0.00     0.209 C 
BRANCH  13  14
ATOM     14  C13 UNK     1       4.904  33.528 239.779  1.00  0.00     0.299 C 
BRANCH  14  15
ATOM     15  N2  UNK     1       4.196  32.306 240.135  1.00  0.00     0.090 N 
ATOM     16  C20 UNK     1       4.180  32.122 241.589  1.00  0.00     0.310 C 
BRANCH  15  17
ATOM     17  C17 UNK     1       4.808  31.144 239.485  1.00  0.00     0.310 C 
BRANCH  17  18
ATOM     18  C19 UNK     1       4.301  30.957 238.079  1.00  0.00    -0.030 A 
ATOM     19  C21 UNK     1       5.184  31.045 237.003  1.00  0.00     0.009 A 
ATOM     20  C24 UNK     1       4.714  30.872 235.700  1.00  0.00     0.001 A 
ATOM     21  C26 UNK     1       3.364  30.611 235.475  1.00  0.00     0.000 A 
ATOM     22  C25 UNK     1       2.480  30.524 236.552  1.00  0.00     0.001 A 
ATOM     23  C22 UNK     1       2.949  30.697 237.853  1.00  0.00     0.009 A 
ENDBRANCH  17  18
ENDBRANCH  15  17
ENDBRANCH  14  15
ENDBRANCH  13  14
ENDBRANCH  12  13
ENDBRANCH  10  12
ENDBRANCH   3  10
BRANCH   2  24
ATOM     24  C4  UNK     1       0.696  34.332 235.273  1.00  0.00    -0.042 A 
ATOM     25  C8  UNK     1       0.428  32.971 235.117  1.00  0.00     0.044 A 
ATOM     26  C15 UNK     1       0.518  32.382 233.855  1.00  0.00     0.103 A 
ATOM     27  C18 UNK     1       0.876  33.153 232.751  1.00  0.00     0.036 A 
ATOM     28  C16 UNK     1       1.145  34.513 232.905  1.00  0.00     0.003 A 
ATOM     29  C9  UNK     1       1.055  35.102 234.167  1.00  0.00     0.008 A 
BRANCH  26  30
ATOM     30  N3  UNK     1       0.243  30.998 233.697  1.00  0.00    -0.116 N 
ATOM     31  O5  UNK     1      -0.484  30.422 234.543  1.00  0.00    -0.532 OA
ATOM     32  O6  UNK     1       0.735  30.389 232.716  1.00  0.00    -0.532 OA
ENDBRANCH  26  30
ENDBRANCH   2  24
BRANCH   4  33
ATOM     33  C11 UNK     1      -1.897  35.491 236.506  1.00  0.00     0.291 C 
ATOM     34  O4  UNK     1      -2.514  34.976 237.421  1.00  0.00    -0.260 OA
BRANCH  33  35
ATOM     35  O2  UNK     1      -2.304  35.696 235.231  1.00  0.00    -0.323 OA
ATOM     36  C23 UNK     1      -2.980  34.592 234.624  1.00  0.00     0.213 C 
ENDBRANCH  33  35
ENDBRANCH   4  33
TORSDOF 11
ENDMDL
MODEL 2
REMARK VINA RESULT:      -6.1      2.164      3.342
REMARK  11 active torsions:
REMARK  status: ('A' for Active; 'I' for Inactive)
REMARK    1  A    between atoms: O1_1  and  C7_16 
REMARK    2  A    between atoms: O1_1  and  C14_23 
REMARK    3  A    between atoms: O2_2  and  C11_20 
REMARK    4  A    between atoms: N2_8  and  C13_22 
REMARK    5  A    between atoms: N2_8  and  C17_26 
REMARK    6  A    between atoms: N3_9  and  C15_24 
REMARK    7  A    between atoms: C1_10  and  C4_13 
REMARK    8  A    between atoms: C2_11  and  C7_16 
REMARK    9  A    between atoms: C3_12  and  C11_20 
REMARK   10  A    between atoms: C13_22  and  C14_23 
REMARK   11  A    between atoms: C17_26  and  C19_28 
ROOT
ATOM      1  N1  UNK     1       1.048  37.770 237.030  1.00  0.00    -0.362 N 
ATOM      2  C1  UNK     1       0.622  35.060 236.323  1.00  0.00     0.101 C 
ATOM      3  C2  UNK     1       1.980  35.610 236.778  1.00  0.00     0.052 C 
ATOM      4  C3  UNK     1      -0.508  36.086 236.447  1.00  0.00     0.052 C 
ATOM      5  C5  UNK     1       2.137  36.915 237.092  1.00  0.00     0.018 C 
ATOM      6  C6  UNK     1      -0.253  37.376 236.761  1.00  0.00     0.018 C 
ATOM      7  C10 UNK     1       3.429  37.562 237.513  1.00  0.00     0.069 C 
ATOM      8  C12 UNK     1      -1.280  38.471 236.857  1.00  0.00     0.069 C 
ATOM      9  H2  UNK     1       1.205  38.746 237.257  1.00  0.00     0.165 HD
ENDROOT
BRANCH   3  10
ATOM     10  C7  UNK     1       3.073  34.634 236.915  1.00  0.00     0.292 C 
ATOM     11  O3  UNK     1       3.870  34.393 236.026  1.00  0.00    -0.259 OA
BRANCH  10  12
ATOM     12  O1  UNK     1       3.012  34.094 238.156  1.00  0.00    -0.316 OA
BRANCH  12  13
ATOM     13  C14 UNK     1       2.865  32.671 238.193  1.00  0.00     0.209 C 
BRANCH  13  14
ATOM     14  C13 UNK     1       2.127  32.288 239.465  1.00  0.00     0.299 C 
BRANCH  14  15
ATOM     15  N2  UNK     1       0.987  31.434 239.160  1.00  0.00     0.090 N 
ATOM     16  C20 UNK     1       1.434  30.102 238.746  1.00  0.00     0.310 C 
BRANCH  15  17
ATOM     17  C17 UNK     1       0.154  32.036 238.116  1.00  0.00     0.310 C 
BRANCH  17  18
ATOM     18  C19 UNK     1      -1.314  31.914 238.430  1.00  0.00    -0.030 A 
ATOM     19  C21 UNK     1      -1.771  32.145 239.727  1.00  0.00     0.009 A 
ATOM     20  C24 UNK     1      -3.131  32.032 240.018  1.00  0.00     0.001 A 
ATOM     21  C26 UNK     1      -4.033  31.689 239.012  1.00  0.00     0.000 A 
ATOM     22  C25 UNK     1      -3.576  31.457 237.714  1.00  0.00     0.001 A 
ATOM     23  C22 UNK     1      -2.217  31.570 237.423  1.00  0.00     0.009 A 
ENDBRANCH  17  18
ENDBRANCH  15  17
ENDBRANCH  14  15
ENDBRANCH  13  14
ENDBRANCH  12  13
ENDBRANCH  10  12
ENDBRANCH   3  10
BRANCH   2  24
ATOM     24  C4  UNK     1       0.719  34.572 234.906  1.00  0.00    -0.042 A 
ATOM     25  C8  UNK     1       0.477  33.230 234.610  1.00  0.00     0.044 A 
ATOM     26  C15 UNK     1       0.568  32.778 233.293  1.00  0.00     0.103 A 
ATOM     27  C18 UNK     1       0.901  33.667 232.273  1.00  0.00     0.036 A 
ATOM     28  C16 UNK     1       1.144  35.009 232.567  1.00  0.00     0.003 A 
ATOM     29  C9  UNK     1       1.053  35.460 233.883  1.00  0.00     0.008 A 
BRANCH  26  30
ATOM     30  N3  UNK     1       0.320  31.412 232.993  1.00  0.00    -0.116 N 
ATOM     31  O5  UNK     1       1.295  30.648 232.789  1.00  0.00    -0.532 OA
ATOM     32  O6  UNK     1      -0.867  31.007 232.941  1.00  0.00    -0.532 OA
ENDBRANCH  26  30
ENDBRANCH   2  24
BRANCH   4  33
ATOM     33  C11 UNK     1      -1.878  35.582 236.256  1.00  0.00     0.291 C 
ATOM     34  O4  UNK     1      -2.524  35.049 237.140  1.00  0.00    -0.260 OA
BRANCH  33  35
ATOM     35  O2  UNK     1      -2.246  35.820 234.975  1.00  0.00    -0.323 OA
ATOM     36  C23 UNK     1      -2.995  34.772 234.353  1.00  0.00     0.213 C 
ENDBRANCH  33  35
ENDBRANCH   4  33
TORSDOF 11
ENDMDL
MODEL 3
REMARK VINA RESULT:      -6.1      2.371      5.995
REMARK  11 active torsions:
REMARK  status: ('A' for Active; 'I' for Inactive)
REMARK    1  A    between atoms: O1_1  and  C7_16 
REMARK    2  A    between atoms: O1_1  and  C14_23 
REMARK    3  A    between atoms: O2_2  and  C11_20 
REMARK    4  A    between atoms: N2_8  and  C13_22 
REMARK    5  A    between atoms: N2_8  and  C17_26 
REMARK    6  A    between atoms: N3_9  and  C15_24 
REMARK    7  A    between atoms: C1_10  and  C4_13 
REMARK    8  A    between atoms: C2_11  and  C7_16 
REMARK    9  A    between atoms: C3_12  and  C11_20 
REMARK   10  A    between atoms: C13_22  and  C14_23 
REMARK   11  A    between atoms: C17_26  and  C19_28 
ROOT
ATOM      1  N1  UNK     1      -0.423  36.974 235.264  1.00  0.00    -0.362 N 
ATOM      2  C1  UNK     1       1.910  35.383 235.029  1.00  0.00     0.101 C 
ATOM      3  C2  UNK     1       0.831  35.465 233.942  1.00  0.00     0.052 C 
ATOM      4  C3  UNK     1       1.675  36.370 236.176  1.00  0.00     0.052 C 
ATOM      5  C5  UNK     1      -0.272  36.228 234.106  1.00  0.00     0.018 C 
ATOM      6  C6  UNK     1       0.532  37.088 236.261  1.00  0.00     0.018 C 
ATOM      7  C10 UNK     1      -1.404  36.350 233.121  1.00  0.00     0.069 C 
ATOM      8  C12 UNK     1       0.181  38.043 237.370  1.00  0.00     0.069 C 
ATOM      9  H2  UNK     1      -1.271  37.522 235.362  1.00  0.00     0.165 HD
ENDROOT
BRANCH   3  10
ATOM     10  C7  UNK     1       1.095  34.726 232.696  1.00  0.00     0.292 C 
ATOM     11  O3  UNK     1       1.705  35.198 231.754  1.00  0.00    -0.259 OA
BRANCH  10  12
ATOM     12  O1  UNK     1       0.552  33.490 232.809  1.00  0.00    -0.316 OA
BRANCH  12  13
ATOM     13  C14 UNK     1      -0.179  33.042 231.664  1.00  0.00     0.209 C 
BRANCH  13  14
ATOM     14  C13 UNK     1      -1.564  32.599 232.109  1.00  0.00     0.299 C 
BRANCH  14  15
ATOM     15  N2  UNK     1      -1.549  32.195 233.508  1.00  0.00     0.090 N 
ATOM     16  C20 UNK     1      -1.180  30.782 233.634  1.00  0.00     0.310 C 
BRANCH  15  17
ATOM     17  C17 UNK     1      -2.853  32.434 234.130  1.00  0.00     0.310 C 
BRANCH  17  18
ATOM     18  C19 UNK     1      -2.719  32.863 235.567  1.00  0.00    -0.030 A 
ATOM     19  C21 UNK     1      -2.541  34.211 235.879  1.00  0.00     0.009 A 
ATOM     20  C24 UNK     1      -2.415  34.608 237.211  1.00  0.00     0.001 A 
ATOM     21  C26 UNK     1      -2.470  33.658 238.230  1.00  0.00     0.000 A 
ATOM     22  C25 UNK     1      -2.647  32.309 237.918  1.00  0.00     0.001 A 
ATOM     23  C22 UNK     1      -2.772  31.912 236.587  1.00  0.00     0.009 A 
ENDBRANCH  17  18
ENDBRANCH  15  17
ENDBRANCH  14  15
ENDBRANCH  13  14
ENDBRANCH  12  13
ENDBRANCH  10  12
ENDBRANCH   3  10
BRANCH   2  24
ATOM     24  C4  UNK     1       1.988  33.983 235.565  1.00  0.00    -0.042 A 
ATOM     25  C8  UNK     1       3.190  33.277 235.507  1.00  0.00     0.044 A 
ATOM     26  C15 UNK     1       3.261  31.975 236.005  1.00  0.00     0.103 A 
ATOM     27  C18 UNK     1       2.129  31.380 236.561  1.00  0.00     0.036 A 
ATOM     28  C16 UNK     1       0.927  32.083 236.619  1.00  0.00     0.003 A 
ATOM     29  C9  UNK     1       0.857  33.384 236.122  1.00  0.00     0.008 A 
BRANCH  26  30
ATOM     30  N3  UNK     1       4.485  31.259 235.946  1.00  0.00    -0.116 N 
ATOM     31  O5  UNK     1       4.774  30.633 234.897  1.00  0.00    -0.532 OA
ATOM     32  O6  UNK     1       5.246  31.272 236.945  1.00  0.00    -0.532 OA
ENDBRANCH  26  30
ENDBRANCH   2  24
BRANCH   4  33
ATOM     33  C11 UNK     1       2.773  36.528 237.144  1.00  0.00     0.291 C 
ATOM     34  O4  UNK     1       3.667  37.344 237.015  1.00  0.00    -0.260 OA
BRANCH  33  35
ATOM     35  O2  UNK     1       2.593  35.633 238.145  1.00  0.00    -0.323 OA
ATOM     36  C23 UNK     1       3.795  35.096 238.703  1.00  0.00     0.213 C 
ENDBRANCH  33  35
ENDBRANCH   4  33
TORSDOF 11
ENDMDL
MODEL 4
REMARK VINA RESULT:      -5.9      7.384     10.089
REMARK  11 active torsions:
REMARK  status: ('A' for Active; 'I' for Inactive)
REMARK    1  A    between atoms: O1_1  and  C7_16 
REMARK    2  A    between atoms: O1_1  and  C14_23 
REMARK    3  A    between atoms: O2_2  and  C11_20 
REMARK    4  A    between atoms: N2_8  and  C13_22 
REMARK    5  A    between atoms: N2_8  and  C17_26 
REMARK    6  A    between atoms: N3_9  and  C15_24 
REMARK    7  A    between atoms: C1_10  and  C4_13 
REMARK    8  A    between atoms: C2_11  and  C7_16 
REMARK    9  A    between atoms: C3_12  and  C11_20 
REMARK   10  A    between atoms: C13_22  and  C14_23 
REMARK   11  A    between atoms: C17_26  and  C19_28 
ROOT
ATOM      1  N1  UNK     1       1.450  38.346 227.374  1.00  0.00    -0.362 N 
ATOM      2  C1  UNK     1      -1.118  39.044 228.348  1.00  0.00     0.101 C 
ATOM      3  C2  UNK     1      -0.542  37.625 228.428  1.00  0.00     0.052 C 
ATOM      4  C3  UNK     1      -0.102  40.071 227.839  1.00  0.00     0.052 C 
ATOM      5  C5  UNK     1       0.684  37.337 227.937  1.00  0.00     0.018 C 
ATOM      6  C6  UNK     1       1.102  39.688 227.357  1.00  0.00     0.018 C 
ATOM      7  C10 UNK     1       1.325  35.976 227.931  1.00  0.00     0.069 C 
ATOM      8  C12 UNK     1       2.147  40.607 226.787  1.00  0.00     0.069 C 
ATOM      9  H2  UNK     1       2.358  38.093 227.001  1.00  0.00     0.165 HD
ENDROOT
BRANCH   3  10
ATOM     10  C7  UNK     1      -1.363  36.619 229.122  1.00  0.00     0.292 C 
ATOM     11  O3  UNK     1      -1.821  35.634 228.571  1.00  0.00    -0.259 OA
BRANCH  10  12
ATOM     12  O1  UNK     1      -1.496  36.993 230.416  1.00  0.00    -0.316 OA
BRANCH  12  13
ATOM     13  C14 UNK     1      -0.814  36.163 231.361  1.00  0.00     0.209 C 
BRANCH  13  14
ATOM     14  C13 UNK     1      -1.846  35.406 232.182  1.00  0.00     0.299 C 
BRANCH  14  15
ATOM     15  N2  UNK     1      -1.320  35.088 233.503  1.00  0.00     0.090 N 
ATOM     16  C20 UNK     1      -1.777  33.766 233.937  1.00  0.00     0.310 C 
BRANCH  15  17
ATOM     17  C17 UNK     1      -1.716  36.107 234.478  1.00  0.00     0.310 C 
BRANCH  17  18
ATOM     18  C19 UNK     1      -0.533  36.646 235.238  1.00  0.00    -0.030 A 
ATOM     19  C21 UNK     1       0.757  36.464 234.740  1.00  0.00     0.009 A 
ATOM     20  C24 UNK     1       1.853  36.963 235.445  1.00  0.00     0.001 A 
ATOM     21  C26 UNK     1       1.659  37.646 236.644  1.00  0.00     0.000 A 
ATOM     22  C25 UNK     1       0.368  37.828 237.143  1.00  0.00     0.001 A 
ATOM     23  C22 UNK     1      -0.728  37.328 236.439  1.00  0.00     0.009 A 
ENDBRANCH  17  18
ENDBRANCH  15  17
ENDBRANCH  14  15
ENDBRANCH  13  14
ENDBRANCH  12  13
ENDBRANCH  10  12
ENDBRANCH   3  10
BRANCH   2  24
ATOM     24  C4  UNK     1      -2.337  39.050 227.472  1.00  0.00    -0.042 A 
ATOM     25  C8  UNK     1      -2.302  39.683 226.229  1.00  0.00     0.044 A 
ATOM     26  C15 UNK     1      -3.436  39.690 225.416  1.00  0.00     0.103 A 
ATOM     27  C18 UNK     1      -4.605  39.064 225.847  1.00  0.00     0.036 A 
ATOM     28  C16 UNK     1      -4.642  38.431 227.089  1.00  0.00     0.003 A 
ATOM     29  C9  UNK     1      -3.508  38.425 227.901  1.00  0.00     0.008 A 
BRANCH  26  30
ATOM     30  N3  UNK     1      -3.399  40.333 224.151  1.00  0.00    -0.116 N 
ATOM     31  O5  UNK     1      -2.287  40.646 223.661  1.00  0.00    -0.532 OA
ATOM     32  O6  UNK     1      -4.479  40.569 223.557  1.00  0.00    -0.532 OA
ENDBRANCH  26  30
ENDBRANCH   2  24
BRANCH   4  33
ATOM     33  C11 UNK     1      -0.487  41.488 227.948  1.00  0.00     0.291 C 
ATOM     34  O4  UNK     1      -0.828  42.164 226.994  1.00  0.00    -0.260 OA
BRANCH  33  35
ATOM     35  O2  UNK     1      -0.390  41.858 229.247  1.00  0.00    -0.323 OA
ATOM     36  C23 UNK     1       0.811  42.555 229.591  1.00  0.00     0.213 C 
ENDBRANCH  33  35
ENDBRANCH   4  33
TORSDOF 11
ENDMDL
MODEL 5
REMARK VINA RESULT:      -5.9      3.179      7.076
REMARK  11 active torsions:
REMARK  status: ('A' for Active; 'I' for Inactive)
REMARK    1  A    between atoms: O1_1  and  C7_16 
REMARK    2  A    between atoms: O1_1  and  C14_23 
REMARK    3  A    between atoms: O2_2  and  C11_20 
REMARK    4  A    between atoms: N2_8  and  C13_22 
REMARK    5  A    between atoms: N2_8  and  C17_26 
REMARK    6  A    between atoms: N3_9  and  C15_24 
REMARK    7  A    between atoms: C1_10  and  C4_13 
REMARK    8  A    between atoms: C2_11  and  C7_16 
REMARK    9  A    between atoms: C3_12  and  C11_20 
REMARK   10  A    between atoms: C13_22  and  C14_23 
REMARK   11  A    between atoms: C17_26  and  C19_28 
ROOT
ATOM      1  N1  UNK     1      -0.653  36.960 234.746  1.00  0.00    -0.362 N 
ATOM      2  C1  UNK     1       1.543  35.173 234.634  1.00  0.00     0.101 C 
ATOM      3  C2  UNK     1       0.589  35.413 233.457  1.00  0.00     0.052 C 
ATOM      4  C3  UNK     1       1.282  36.115 235.813  1.00  0.00     0.052 C 
ATOM      5  C5  UNK     1      -0.454  36.266 233.563  1.00  0.00     0.018 C 
ATOM      6  C6  UNK     1       0.205  36.932 235.834  1.00  0.00     0.018 C 
ATOM      7  C10 UNK     1      -1.466  36.545 232.486  1.00  0.00     0.069 C 
ATOM      8  C12 UNK     1      -0.170  37.854 236.961  1.00  0.00     0.069 C 
ATOM      9  H2  UNK     1      -1.454  37.579 234.797  1.00  0.00     0.165 HD
ENDROOT
BRANCH   3  10
ATOM     10  C7  UNK     1       0.909  34.719 232.199  1.00  0.00     0.292 C 
ATOM     11  O3  UNK     1       1.736  35.126 231.402  1.00  0.00    -0.259 OA
BRANCH  10  12
ATOM     12  O1  UNK     1       0.143  33.606 232.116  1.00  0.00    -0.316 OA
BRANCH  12  13
ATOM     13  C14 UNK     1       0.838  32.417 231.730  1.00  0.00     0.209 C 
BRANCH  13  14
ATOM     14  C13 UNK     1      -0.040  31.625 230.774  1.00  0.00     0.299 C 
BRANCH  14  15
ATOM     15  N2  UNK     1      -0.824  32.520 229.934  1.00  0.00     0.090 N 
ATOM     16  C20 UNK     1      -2.228  32.103 229.904  1.00  0.00     0.310 C 
BRANCH  15  17
ATOM     17  C17 UNK     1      -0.279  32.564 228.575  1.00  0.00     0.310 C 
BRANCH  17  18
ATOM     18  C19 UNK     1       0.437  33.860 228.301  1.00  0.00    -0.030 A 
ATOM     19  C21 UNK     1      -0.217  35.075 228.501  1.00  0.00     0.009 A 
ATOM     20  C24 UNK     1       0.447  36.275 228.246  1.00  0.00     0.001 A 
ATOM     21  C26 UNK     1       1.765  36.260 227.793  1.00  0.00     0.000 A 
ATOM     22  C25 UNK     1       2.421  35.044 227.591  1.00  0.00     0.001 A 
ATOM     23  C22 UNK     1       1.757  33.844 227.845  1.00  0.00     0.009 A 
ENDBRANCH  17  18
ENDBRANCH  15  17
ENDBRANCH  14  15
ENDBRANCH  13  14
ENDBRANCH  12  13
ENDBRANCH  10  12
ENDBRANCH   3  10
BRANCH   2  24
ATOM     24  C4  UNK     1       1.443  33.744 235.088  1.00  0.00    -0.042 A 
ATOM     25  C8  UNK     1       2.565  32.916 235.041  1.00  0.00     0.044 A 
ATOM     26  C15 UNK     1       2.471  31.589 235.462  1.00  0.00     0.103 A 
ATOM     27  C18 UNK     1       1.255  31.091 235.929  1.00  0.00     0.036 A 
ATOM     28  C16 UNK     1       0.133  31.917 235.976  1.00  0.00     0.003 A 
ATOM     29  C9  UNK     1       0.228  33.244 235.555  1.00  0.00     0.008 A 
BRANCH  26  30
ATOM     30  N3  UNK     1       3.613  30.747 235.415  1.00  0.00    -0.116 N 
ATOM     31  O5  UNK     1       4.578  31.071 234.681  1.00  0.00    -0.532 OA
ATOM     32  O6  UNK     1       3.628  29.702 236.111  1.00  0.00    -0.532 OA
ENDBRANCH  26  30
ENDBRANCH   2  24
BRANCH   4  33
ATOM     33  C11 UNK     1       2.289  36.118 236.888  1.00  0.00     0.291 C 
ATOM     34  O4  UNK     1       2.252  35.361 237.841  1.00  0.00    -0.260 OA
BRANCH  33  35
ATOM     35  O2  UNK     1       3.205  37.076 236.613  1.00  0.00    -0.323 OA
ATOM     36  C23 UNK     1       4.154  37.326 237.654  1.00  0.00     0.213 C 
ENDBRANCH  33  35
ENDBRANCH   4  33
TORSDOF 11
ENDMDL
MODEL 6
REMARK VINA RESULT:      -5.8      1.980      6.306
REMARK  11 active torsions:
REMARK  status: ('A' for Active; 'I' for Inactive)
REMARK    1  A    between atoms: O1_1  and  C7_16 
REMARK    2  A    between atoms: O1_1  and  C14_23 
REMARK    3  A    between atoms: O2_2  and  C11_20 
REMARK    4  A    between atoms: N2_8  and  C13_22 
REMARK    5  A    between atoms: N2_8  and  C17_26 
REMARK    6  A    between atoms: N3_9  and  C15_24 
REMARK    7  A    between atoms: C1_10  and  C4_13 
REMARK    8  A    between atoms: C2_11  and  C7_16 
REMARK    9  A    between atoms: C3_12  and  C11_20 
REMARK   10  A    between atoms: C13_22  and  C14_23 
REMARK   11  A    between atoms: C17_26  and  C19_28 
ROOT
ATOM      1  N1  UNK     1       0.083  32.965 232.828  1.00  0.00    -0.362 N 
ATOM      2  C1  UNK     1       0.925  33.629 235.450  1.00  0.00     0.101 C 
ATOM      3  C2  UNK     1       1.227  34.496 234.222  1.00  0.00     0.052 C 
ATOM      4  C3  UNK     1      -0.013  32.459 235.137  1.00  0.00     0.052 C 
ATOM      5  C5  UNK     1       0.816  34.130 232.988  1.00  0.00     0.018 C 
ATOM      6  C6  UNK     1      -0.365  32.164 233.865  1.00  0.00     0.018 C 
ATOM      7  C10 UNK     1       1.090  34.888 231.717  1.00  0.00     0.069 C 
ATOM      8  C12 UNK     1      -1.235  31.010 233.445  1.00  0.00     0.069 C 
ATOM      9  H2  UNK     1      -0.196  32.713 231.886  1.00  0.00     0.165 HD
ENDROOT
BRANCH   3  10
ATOM     10  C7  UNK     1       1.925  35.768 234.471  1.00  0.00     0.292 C 
ATOM     11  O3  UNK     1       2.539  36.374 233.611  1.00  0.00    -0.259 OA
BRANCH  10  12
ATOM     12  O1  UNK     1       1.754  36.103 235.772  1.00  0.00    -0.316 OA
BRANCH  12  13
ATOM     13  C14 UNK     1       1.510  37.492 236.014  1.00  0.00     0.209 C 
BRANCH  13  14
ATOM     14  C13 UNK     1       0.430  37.622 237.076  1.00  0.00     0.299 C 
BRANCH  14  15
ATOM     15  N2  UNK     1      -0.892  37.643 236.464  1.00  0.00     0.090 N 
ATOM     16  C20 UNK     1      -1.761  38.608 237.144  1.00  0.00     0.310 C 
BRANCH  15  17
ATOM     17  C17 UNK     1      -1.497  36.309 236.492  1.00  0.00     0.310 C 
BRANCH  17  18
ATOM     18  C19 UNK     1      -2.016  35.901 235.139  1.00  0.00    -0.030 A 
ATOM     19  C21 UNK     1      -1.645  36.621 234.004  1.00  0.00     0.009 A 
ATOM     20  C24 UNK     1      -2.126  36.242 232.749  1.00  0.00     0.001 A 
ATOM     21  C26 UNK     1      -2.976  35.143 232.631  1.00  0.00     0.000 A 
ATOM     22  C25 UNK     1      -3.348  34.423 233.767  1.00  0.00     0.001 A 
ATOM     23  C22 UNK     1      -2.868  34.801 235.021  1.00  0.00     0.009 A 
ENDBRANCH  17  18
ENDBRANCH  15  17
ENDBRANCH  14  15
ENDBRANCH  13  14
ENDBRANCH  12  13
ENDBRANCH  10  12
ENDBRANCH   3  10
BRANCH   2  24
ATOM     24  C4  UNK     1       2.207  33.114 236.039  1.00  0.00    -0.042 A 
ATOM     25  C8  UNK     1       2.565  33.457 237.344  1.00  0.00     0.044 A 
ATOM     26  C15 UNK     1       3.757  32.979 237.889  1.00  0.00     0.103 A 
ATOM     27  C18 UNK     1       4.591  32.160 237.130  1.00  0.00     0.036 A 
ATOM     28  C16 UNK     1       4.236  31.817 235.826  1.00  0.00     0.003 A 
ATOM     29  C9  UNK     1       3.044  32.294 235.281  1.00  0.00     0.008 A 
BRANCH  26  30
ATOM     30  N3  UNK     1       4.119  33.327 239.217  1.00  0.00    -0.116 N 
ATOM     31  O5  UNK     1       3.375  34.102 239.867  1.00  0.00    -0.532 OA
ATOM     32  O6  UNK     1       5.172  32.849 239.706  1.00  0.00    -0.532 OA
ENDBRANCH  26  30
ENDBRANCH   2  24
BRANCH   4  33
ATOM     33  C11 UNK     1      -0.542  31.712 236.290  1.00  0.00     0.291 C 
ATOM     34  O4  UNK     1      -0.109  30.631 236.643  1.00  0.00    -0.260 OA
BRANCH  33  35
ATOM     35  O2  UNK     1      -1.547  32.434 236.841  1.00  0.00    -0.323 OA
ATOM     36  C23 UNK     1      -1.538  32.496 238.270  1.00  0.00     0.213 C 
ENDBRANCH  33  35
ENDBRANCH   4  33
TORSDOF 11
ENDMDL
MODEL 7
REMARK VINA RESULT:      -5.8      2.112      6.168
REMARK  11 active torsions:
REMARK  status: ('A' for Active; 'I' for Inactive)
REMARK    1  A    between atoms: O1_1  and  C7_16 
REMARK    2  A    between atoms: O1_1  and  C14_23 
REMARK    3  A    between atoms: O2_2  and  C11_20 
REMARK    4  A    between atoms: N2_8  and  C13_22 
REMARK    5  A    between atoms: N2_8  and  C17_26 
REMARK    6  A    between atoms: N3_9  and  C15_24 
REMARK    7  A    between atoms: C1_10  and  C4_13 
REMARK    8  A    between atoms: C2_11  and  C7_16 
REMARK    9  A    between atoms: C3_12  and  C11_20 
REMARK   10  A    between atoms: C13_22  and  C14_23 
REMARK   11  A    between atoms: C17_26  and  C19_28 
ROOT
ATOM      1  N1  UNK     1       1.095  37.499 237.577  1.00  0.00    -0.362 N 
ATOM      2  C1  UNK     1       1.308  35.340 235.756  1.00  0.00     0.101 C 
ATOM      3  C2  UNK     1       0.114  36.302 235.788  1.00  0.00     0.052 C 
ATOM      4  C3  UNK     1       2.440  35.764 236.696  1.00  0.00     0.052 C 
ATOM      5  C5  UNK     1       0.051  37.310 236.686  1.00  0.00     0.018 C 
ATOM      6  C6  UNK     1       2.282  36.785 237.568  1.00  0.00     0.018 C 
ATOM      7  C10 UNK     1      -1.087  38.284 236.826  1.00  0.00     0.069 C 
ATOM      8  C12 UNK     1       3.308  37.247 238.567  1.00  0.00     0.069 C 
ATOM      9  H2  UNK     1       1.007  38.255 238.248  1.00  0.00     0.165 HD
ENDROOT
BRANCH   3  10
ATOM     10  C7  UNK     1      -0.916  36.107 234.754  1.00  0.00     0.292 C 
ATOM     11  O3  UNK     1      -0.754  36.404 233.584  1.00  0.00    -0.259 OA
BRANCH  10  12
ATOM     12  O1  UNK     1      -2.011  35.564 235.338  1.00  0.00    -0.316 OA
BRANCH  12  13
ATOM     13  C14 UNK     1      -2.923  34.924 234.441  1.00  0.00     0.209 C 
BRANCH  13  14
ATOM     14  C13 UNK     1      -2.606  33.438 234.398  1.00  0.00     0.299 C 
BRANCH  14  15
ATOM     15  N2  UNK     1      -2.741  32.922 233.042  1.00  0.00     0.090 N 
ATOM     16  C20 UNK     1      -3.732  31.845 232.995  1.00  0.00     0.310 C 
BRANCH  15  17
ATOM     17  C17 UNK     1      -1.450  32.445 232.539  1.00  0.00     0.310 C 
BRANCH  17  18
ATOM     18  C19 UNK     1      -0.776  33.469 231.665  1.00  0.00    -0.030 A 
ATOM     19  C21 UNK     1      -1.540  34.280 230.826  1.00  0.00     0.009 A 
ATOM     20  C24 UNK     1      -0.915  35.229 230.015  1.00  0.00     0.001 A 
ATOM     21  C26 UNK     1       0.471  35.367 230.044  1.00  0.00     0.000 A 
ATOM     22  C25 UNK     1       1.236  34.554 230.883  1.00  0.00     0.001 A 
ATOM     23  C22 UNK     1       0.612  33.606 231.693  1.00  0.00     0.009 A 
ENDBRANCH  17  18
ENDBRANCH  15  17
ENDBRANCH  14  15
ENDBRANCH  13  14
ENDBRANCH  12  13
ENDBRANCH  10  12
ENDBRANCH   3  10
BRANCH   2  24
ATOM     24  C4  UNK     1       0.852  33.950 236.097  1.00  0.00    -0.042 A 
ATOM     25  C8  UNK     1       1.052  32.906 235.192  1.00  0.00     0.044 A 
ATOM     26  C15 UNK     1       0.627  31.616 235.509  1.00  0.00     0.103 A 
ATOM     27  C18 UNK     1       0.002  31.369 236.731  1.00  0.00     0.036 A 
ATOM     28  C16 UNK     1      -0.198  32.411 237.637  1.00  0.00     0.003 A 
ATOM     29  C9  UNK     1       0.227  33.701 237.319  1.00  0.00     0.008 A 
BRANCH  26  30
ATOM     30  N3  UNK     1       0.831  30.555 234.589  1.00  0.00    -0.116 N 
ATOM     31  O5  UNK     1       1.741  30.661 233.731  1.00  0.00    -0.532 OA
ATOM     32  O6  UNK     1       0.097  29.539 234.658  1.00  0.00    -0.532 OA
ENDBRANCH  26  30
ENDBRANCH   2  24
BRANCH   4  33
ATOM     33  C11 UNK     1       3.714  35.037 236.562  1.00  0.00     0.291 C 
ATOM     34  O4  UNK     1       4.522  35.260 235.680  1.00  0.00    -0.260 OA
BRANCH  33  35
ATOM     35  O2  UNK     1       3.793  34.127 237.562  1.00  0.00    -0.323 OA
ATOM     36  C23 UNK     1       4.148  32.804 237.152  1.00  0.00     0.213 C 
ENDBRANCH  33  35
ENDBRANCH   4  33
TORSDOF 11
ENDMDL
MODEL 8
REMARK VINA RESULT:      -5.8      1.325      3.111
REMARK  11 active torsions:
REMARK  status: ('A' for Active; 'I' for Inactive)
REMARK    1  A    between atoms: O1_1  and  C7_16 
REMARK    2  A    between atoms: O1_1  and  C14_23 
REMARK    3  A    between atoms: O2_2  and  C11_20 
REMARK    4  A    between atoms: N2_8  and  C13_22 
REMARK    5  A    between atoms: N2_8  and  C17_26 
REMARK    6  A    between atoms: N3_9  and  C15_24 
REMARK    7  A    between atoms: C1_10  and  C4_13 
REMARK    8  A    between atoms: C2_11  and  C7_16 
REMARK    9  A    between atoms: C3_12  and  C11_20 
REMARK   10  A    between atoms: C13_22  and  C14_23 
REMARK   11  A    between atoms: C17_26  and  C19_28 
ROOT
ATOM      1  N1  UNK     1       1.064  37.645 237.116  1.00  0.00    -0.362 N 
ATOM      2  C1  UNK     1       0.652  34.989 236.220  1.00  0.00     0.101 C 
ATOM      3  C2  UNK     1       1.996  35.501 236.752  1.00  0.00     0.052 C 
ATOM      4  C3  UNK     1      -0.478  36.011 236.375  1.00  0.00     0.052 C 
ATOM      5  C5  UNK     1       2.147  36.782 237.156  1.00  0.00     0.018 C 
ATOM      6  C6  UNK     1      -0.229  37.277 236.781  1.00  0.00     0.018 C 
ATOM      7  C10 UNK     1       3.427  37.394 237.658  1.00  0.00     0.069 C 
ATOM      8  C12 UNK     1      -1.255  38.369 236.916  1.00  0.00     0.069 C 
ATOM      9  H2  UNK     1       1.217  38.603 237.411  1.00  0.00     0.165 HD
ENDROOT
BRANCH   3  10
ATOM     10  C7  UNK     1       3.081  34.513 236.859  1.00  0.00     0.292 C 
ATOM     11  O3  UNK     1       4.063  34.516 236.139  1.00  0.00    -0.259 OA
BRANCH  10  12
ATOM     12  O1  UNK     1       2.780  33.653 237.861  1.00  0.00    -0.316 OA
BRANCH  12  13
ATOM     13  C14 UNK     1       2.548  32.301 237.453  1.00  0.00     0.209 C 
BRANCH  13  14
ATOM     14  C13 UNK     1       3.473  31.386 238.238  1.00  0.00     0.299 C 
BRANCH  14  15
ATOM     15  N2  UNK     1       4.626  32.125 238.736  1.00  0.00     0.090 N 
ATOM     16  C20 UNK     1       5.867  31.403 238.444  1.00  0.00     0.310 C 
BRANCH  15  17
ATOM     17  C17 UNK     1       4.505  32.363 240.176  1.00  0.00     0.310 C 
BRANCH  17  18
ATOM     18  C19 UNK     1       5.388  33.494 240.633  1.00  0.00    -0.030 A 
ATOM     19  C21 UNK     1       4.963  34.814 240.485  1.00  0.00     0.009 A 
ATOM     20  C24 UNK     1       5.782  35.863 240.907  1.00  0.00     0.001 A 
ATOM     21  C26 UNK     1       7.024  35.590 241.479  1.00  0.00     0.000 A 
ATOM     22  C25 UNK     1       7.450  34.269 241.626  1.00  0.00     0.001 A 
ATOM     23  C22 UNK     1       6.632  33.222 241.204  1.00  0.00     0.009 A 
ENDBRANCH  17  18
ENDBRANCH  15  17
ENDBRANCH  14  15
ENDBRANCH  13  14
ENDBRANCH  12  13
ENDBRANCH  10  12
ENDBRANCH   3  10
BRANCH   2  24
ATOM     24  C4  UNK     1       0.792  34.595 234.777  1.00  0.00    -0.042 A 
ATOM     25  C8  UNK     1       0.759  33.248 234.414  1.00  0.00     0.044 A 
ATOM     26  C15 UNK     1       0.891  32.883 233.074  1.00  0.00     0.103 A 
ATOM     27  C18 UNK     1       1.054  33.864 232.097  1.00  0.00     0.036 A 
ATOM     28  C16 UNK     1       1.087  35.211 232.459  1.00  0.00     0.003 A 
ATOM     29  C9  UNK     1       0.956  35.575 233.798  1.00  0.00     0.008 A 
BRANCH  26  30
ATOM     30  N3  UNK     1       0.857  31.512 232.705  1.00  0.00    -0.116 N 
ATOM     31  O5  UNK     1       0.269  31.182 231.646  1.00  0.00    -0.532 OA
ATOM     32  O6  UNK     1       1.415  30.668 233.448  1.00  0.00    -0.532 OA
ENDBRANCH  26  30
ENDBRANCH   2  24
BRANCH   4  33
ATOM     33  C11 UNK     1      -1.844  35.528 236.109  1.00  0.00     0.291 C 
ATOM     34  O4  UNK     1      -2.358  35.551 235.005  1.00  0.00    -0.260 OA
BRANCH  33  35
ATOM     35  O2  UNK     1      -2.374  35.082 237.272  1.00  0.00    -0.323 OA
ATOM     36  C23 UNK     1      -2.505  33.662 237.375  1.00  0.00     0.213 C 
ENDBRANCH  33  35
ENDBRANCH   4  33
TORSDOF 11
ENDMDL
MODEL 9
REMARK VINA RESULT:      -5.8      4.792      8.122
REMARK  11 active torsions:
REMARK  status: ('A' for Active; 'I' for Inactive)
REMARK    1  A    between atoms: O1_1  and  C7_16 
REMARK    2  A    between atoms: O1_1  and  C14_23 
REMARK    3  A    between atoms: O2_2  and  C11_20 
REMARK    4  A    between atoms: N2_8  and  C13_22 
REMARK    5  A    between atoms: N2_8  and  C17_26 
REMARK    6  A    between atoms: N3_9  and  C15_24 
REMARK    7  A    between atoms: C1_10  and  C4_13 
REMARK    8  A    between atoms: C2_11  and  C7_16 
REMARK    9  A    between atoms: C3_12  and  C11_20 
REMARK   10  A    between atoms: C13_22  and  C14_23 
REMARK   11  A    between atoms: C17_26  and  C19_28 
ROOT
ATOM      1  N1  UNK     1      -1.450  32.925 230.381  1.00  0.00    -0.362 N 
ATOM      2  C1  UNK     1      -0.819  35.682 230.215  1.00  0.00     0.101 C 
ATOM      3  C2  UNK     1      -1.771  35.096 231.264  1.00  0.00     0.052 C 
ATOM      4  C3  UNK     1      -0.123  34.606 229.376  1.00  0.00     0.052 C 
ATOM      5  C5  UNK     1      -2.053  33.775 231.295  1.00  0.00     0.018 C 
ATOM      6  C6  UNK     1      -0.477  33.305 229.470  1.00  0.00     0.018 C 
ATOM      7  C10 UNK     1      -2.999  33.106 232.255  1.00  0.00     0.069 C 
ATOM      8  C12 UNK     1       0.104  32.180 228.657  1.00  0.00     0.069 C 
ATOM      9  H2  UNK     1      -1.696  31.942 230.422  1.00  0.00     0.165 HD
ENDROOT
BRANCH   3  10
ATOM     10  C7  UNK     1      -2.305  36.035 232.266  1.00  0.00     0.292 C 
ATOM     11  O3  UNK     1      -3.464  36.407 232.283  1.00  0.00    -0.259 OA
BRANCH  10  12
ATOM     12  O1  UNK     1      -1.302  36.376 233.110  1.00  0.00    -0.316 OA
BRANCH  12  13
ATOM     13  C14 UNK     1      -1.655  36.393 234.496  1.00  0.00     0.209 C 
BRANCH  13  14
ATOM     14  C13 UNK     1      -1.548  34.981 235.047  1.00  0.00     0.299 C 
BRANCH  14  15
ATOM     15  N2  UNK     1      -0.516  34.905 236.072  1.00  0.00     0.090 N 
ATOM     16  C20 UNK     1      -1.003  34.170 237.242  1.00  0.00     0.310 C 
BRANCH  15  17
ATOM     17  C17 UNK     1      -0.076  36.246 236.464  1.00  0.00     0.310 C 
BRANCH  17  18
ATOM     18  C19 UNK     1       1.411  36.304 236.693  1.00  0.00    -0.030 A 
ATOM     19  C21 UNK     1       2.239  35.327 236.143  1.00  0.00     0.009 A 
ATOM     20  C24 UNK     1       3.618  35.380 236.355  1.00  0.00     0.001 A 
ATOM     21  C26 UNK     1       4.166  36.410 237.117  1.00  0.00     0.000 A 
ATOM     22  C25 UNK     1       3.337  37.389 237.669  1.00  0.00     0.001 A 
ATOM     23  C22 UNK     1       1.960  37.335 237.456  1.00  0.00     0.009 A 
ENDBRANCH  17  18
ENDBRANCH  15  17
ENDBRANCH  14  15
ENDBRANCH  13  14
ENDBRANCH  12  13
ENDBRANCH  10  12
ENDBRANCH   3  10
BRANCH   2  24
ATOM     24  C4  UNK     1      -1.566  36.627 229.318  1.00  0.00    -0.042 A 
ATOM     25  C8  UNK     1      -1.231  37.982 229.296  1.00  0.00     0.044 A 
ATOM     26  C15 UNK     1      -1.927  38.859 228.463  1.00  0.00     0.103 A 
ATOM     27  C18 UNK     1      -2.957  38.382 227.654  1.00  0.00     0.036 A 
ATOM     28  C16 UNK     1      -3.293  37.028 227.676  1.00  0.00     0.003 A 
ATOM     29  C9  UNK     1      -2.597  36.152 228.508  1.00  0.00     0.008 A 
BRANCH  26  30
ATOM     30  N3  UNK     1      -1.585  40.237 228.440  1.00  0.00    -0.116 N 
ATOM     31  O5  UNK     1      -0.686  40.653 229.211  1.00  0.00    -0.532 OA
ATOM     32  O6  UNK     1      -2.189  41.000 227.648  1.00  0.00    -0.532 OA
ENDBRANCH  26  30
ENDBRANCH   2  24
BRANCH   4  33
ATOM     33  C11 UNK     1       0.977  35.058 228.507  1.00  0.00     0.291 C 
ATOM     34  O4  UNK     1       2.075  35.374 228.927  1.00  0.00    -0.260 OA
BRANCH  33  35
ATOM     35  O2  UNK     1       0.540  35.047 227.225  1.00  0.00    -0.323 OA
ATOM     36  C23 UNK     1       1.519  34.670 226.253  1.00  0.00     0.213 C 
ENDBRANCH  33  35
ENDBRANCH   4  33
TORSDOF 11
ENDMDL
