MODEL 1
REMARK VINA RESULT:      -8.1      0.000      0.000
REMARK  7 active torsions:
REMARK  status: ('A' for Active; 'I' for Inactive)
REMARK    1  A    between atoms: C2_6  and  C21_2 
REMARK       I    between atoms: C21_2  and  N2_3 
REMARK    2  A    between atoms: C3_9  and  O2_10 
REMARK    3  A    between atoms: C4_12  and  N1_13 
REMARK    4  A    between atoms: C18_17  and  O7_18 
REMARK    5  A    between atoms: C17_20  and  O6_21 
REMARK    6  A    between atoms: C13_31  and  O4_32 
REMARK    7  A    between atoms: C10_36  and  N7_37 
ROOT
HETATM    1  C2  MIY  5181       2.773  36.113 237.462  1.00 20.00     0.116 C 
HETATM    2  C1  MIY  5181       1.722  36.648 236.566  1.00 20.00     0.209 C 
HETATM    3  O1  MIY  5181       1.720  37.835 236.306  1.00 20.00    -0.288 OA
HETATM    4  C3  MIY  5181       2.834  34.762 237.662  1.00 20.00     0.108 C 
HETATM    5  C4  MIY  5181       1.980  33.711 236.884  1.00 20.00     0.049 C 
HETATM    6  C5  MIY  5181       1.114  34.297 235.718  1.00 20.00     0.088 C 
HETATM    7  C18 MIY  5181       0.608  35.717 236.025  1.00 20.00     0.180 C 
HETATM    8  C17 MIY  5181      -0.240  36.160 234.815  1.00 20.00     0.097 C 
HETATM    9  C16 MIY  5181      -0.238  35.622 233.572  1.00 20.00     0.030 C 
HETATM   10  C7  MIY  5181       0.616  34.442 233.197  1.00 20.00     0.030 C 
HETATM   11  C6  MIY  5181       1.683  34.172 234.285  1.00 20.00     0.024 C 
HETATM   12  C15 MIY  5181      -1.103  36.253 232.550  1.00 20.00     0.194 C 
HETATM   13  O5  MIY  5181      -1.957  37.120 232.784  1.00 20.00    -0.287 OA
HETATM   14  C14 MIY  5181      -0.875  35.934 231.122  1.00 20.00     0.056 A 
HETATM   15  C9  MIY  5181       0.273  35.239 230.750  1.00 20.00    -0.019 A 
HETATM   16  C8  MIY  5181       1.265  34.769 231.831  1.00 20.00     0.051 C 
HETATM   17  C13 MIY  5181      -1.817  36.401 230.212  1.00 20.00     0.080 A 
HETATM   18  C12 MIY  5181      -1.627  36.161 228.853  1.00 20.00     0.039 A 
HETATM   19  C11 MIY  5181      -0.484  35.469 228.452  1.00 20.00     0.027 A 
HETATM   20  C10 MIY  5181       0.463  35.007 229.381  1.00 20.00     0.017 A 
ENDROOT
BRANCH   1  21
HETATM   21  C21 MIY  5181       3.738  37.052 238.112  1.00 20.00     0.256 C 
HETATM   22  O8  MIY  5181       3.708  37.285 239.331  1.00 20.00    -0.268 OA
HETATM   23  N2  MIY  5181       4.622  37.635 237.271  1.00 20.00    -0.366 N 
ATOM     24  H22 MIY  5181       4.646  37.443 236.269  1.00  0.00     0.159 HD
ATOM     25  H21 MIY  5181       5.279  38.275 237.714  1.00  0.00     0.159 HD
ENDBRANCH   1  21
BRANCH   4  26
HETATM   26  O2  MIY  5181       3.701  34.299 238.580  1.00 20.00    -0.358 OA
ATOM     27  H2  MIY  5181       3.504  34.455 239.496  1.00  0.00     0.217 HD
ENDBRANCH   4  26
BRANCH   7  28
HETATM   28  O7  MIY  5181      -0.362  35.618 237.078  1.00 20.00    -0.374 OA
ATOM     29  H7  MIY  5181      -0.088  36.241 237.741  1.00  0.00     0.211 HD
ENDBRANCH   7  28
BRANCH   5  30
HETATM   30  N1  MIY  5181       1.279  32.666 237.803  1.00 20.00    -0.390 N 
HETATM   31  C19 MIY  5181      -0.156  32.350 237.573  1.00 20.00     0.149 C 
HETATM   32  C20 MIY  5181       2.006  31.382 238.083  1.00 20.00     0.149 C 
ENDBRANCH   5  30
BRANCH   8  33
HETATM   33  O6  MIY  5181      -1.149  37.124 235.033  1.00 20.00    -0.361 OA
ATOM     34  H6  MIY  5181      -1.381  37.275 235.942  1.00  0.00     0.217 HD
ENDBRANCH   8  33
BRANCH  17  35
HETATM   35  O4  MIY  5181      -2.925  37.080 230.677  1.00 20.00    -0.360 OA
ATOM     36  H4  MIY  5181      -3.178  37.050 231.593  1.00  0.00     0.217 HD
ENDBRANCH  17  35
BRANCH  20  37
HETATM   37  N7  MIY  5181       1.605  34.372 228.906  1.00 20.00    -0.291 NA
HETATM   38  C71 MIY  5181       1.265  33.279 227.971  1.00 20.00     0.116 C 
HETATM   39  CN7 MIY  5181       2.252  35.417 228.102  1.00 20.00     0.116 C 
ENDBRANCH  20  37
TORSDOF 7
ENDMDL
MODEL 2
REMARK VINA RESULT:      -7.4      6.383      9.143
REMARK  7 active torsions:
REMARK  status: ('A' for Active; 'I' for Inactive)
REMARK    1  A    between atoms: C2_6  and  C21_2 
REMARK       I    between atoms: C21_2  and  N2_3 
REMARK    2  A    between atoms: C3_9  and  O2_10 
REMARK    3  A    between atoms: C4_12  and  N1_13 
REMARK    4  A    between atoms: C18_17  and  O7_18 
REMARK    5  A    between atoms: C17_20  and  O6_21 
REMARK    6  A    between atoms: C13_31  and  O4_32 
REMARK    7  A    between atoms: C10_36  and  N7_37 
ROOT
HETATM    1  C2  MIY  5181      -1.367  40.693 226.464  1.00 20.00     0.116 C 
HETATM    2  C1  MIY  5181      -1.823  39.527 227.257  1.00 20.00     0.209 C 
HETATM    3  O1  MIY  5181      -2.922  39.060 227.037  1.00 20.00    -0.288 OA
HETATM    4  C3  MIY  5181      -0.088  41.143 226.643  1.00 20.00     0.108 C 
HETATM    5  C4  MIY  5181       0.995  40.419 227.504  1.00 20.00     0.049 C 
HETATM    6  C5  MIY  5181       0.567  39.020 228.064  1.00 20.00     0.088 C 
HETATM    7  C18 MIY  5181      -0.934  38.960 228.393  1.00 20.00     0.180 C 
HETATM    8  C17 MIY  5181      -1.212  37.548 228.950  1.00 20.00     0.097 C 
HETATM    9  C16 MIY  5181      -0.433  36.448 228.821  1.00 20.00     0.030 C 
HETATM   10  C7  MIY  5181       0.890  36.467 228.105  1.00 20.00     0.030 C 
HETATM   11  C6  MIY  5181       1.050  37.772 227.289  1.00 20.00     0.024 C 
HETATM   12  C15 MIY  5181      -0.934  35.180 229.397  1.00 20.00     0.194 C 
HETATM   13  O5  MIY  5181      -1.923  35.083 230.138  1.00 20.00    -0.287 OA
HETATM   14  C14 MIY  5181      -0.303  33.906 228.984  1.00 20.00     0.056 A 
HETATM   15  C9  MIY  5181       0.582  33.897 227.909  1.00 20.00    -0.019 A 
HETATM   16  C8  MIY  5181       0.929  35.216 227.195  1.00 20.00     0.051 C 
HETATM   17  C13 MIY  5181      -0.677  32.761 229.680  1.00 20.00     0.080 A 
HETATM   18  C12 MIY  5181      -0.140  31.532 229.304  1.00 20.00     0.039 A 
HETATM   19  C11 MIY  5181       0.746  31.493 228.227  1.00 20.00     0.027 A 
HETATM   20  C10 MIY  5181       1.112  32.656 227.531  1.00 20.00     0.017 A 
ENDROOT
BRANCH   1  21
HETATM   21  C21 MIY  5181      -2.302  41.335 225.491  1.00 20.00     0.256 C 
HETATM   22  O8  MIY  5181      -3.250  42.045 225.861  1.00 20.00    -0.268 OA
HETATM   23  N2  MIY  5181      -2.047  41.065 224.190  1.00 20.00    -0.366 N 
ATOM     24  H22 MIY  5181      -1.267  40.481 223.885  1.00  0.00     0.159 HD
ATOM     25  H21 MIY  5181      -2.685  41.503 223.527  1.00  0.00     0.159 HD
ENDBRANCH   1  21
BRANCH   4  26
HETATM   26  O2  MIY  5181       0.272  42.280 226.021  1.00 20.00    -0.358 OA
ATOM     27  H2  MIY  5181      -0.415  42.887 225.773  1.00  0.00     0.217 HD
ENDBRANCH   4  26
BRANCH   7  28
HETATM   28  O7  MIY  5181      -1.168  39.805 229.529  1.00 20.00    -0.374 OA
ATOM     29  H7  MIY  5181      -1.851  40.409 229.265  1.00  0.00     0.211 HD
ENDBRANCH   7  28
BRANCH   5  30
HETATM   30  N1  MIY  5181       1.740  41.359 228.498  1.00 20.00    -0.390 N 
HETATM   31  C19 MIY  5181       3.000  42.016 228.063  1.00 20.00     0.149 C 
HETATM   32  C20 MIY  5181       0.920  42.364 229.256  1.00 20.00     0.149 C 
ENDBRANCH   5  30
BRANCH   8  33
HETATM   33  O6  MIY  5181      -2.299  37.407 229.726  1.00 20.00    -0.361 OA
ATOM     34  H6  MIY  5181      -2.468  36.527 230.045  1.00  0.00     0.217 HD
ENDBRANCH   8  33
BRANCH  17  35
HETATM   35  O4  MIY  5181      -1.560  32.872 230.734  1.00 20.00    -0.360 OA
ATOM     36  H4  MIY  5181      -1.791  33.716 231.103  1.00  0.00     0.217 HD
ENDBRANCH  17  35
BRANCH  20  37
HETATM   37  N7  MIY  5181       1.959  32.535 226.434  1.00 20.00    -0.291 NA
HETATM   38  C71 MIY  5181       2.866  31.377 226.579  1.00 20.00     0.116 C 
HETATM   39  CN7 MIY  5181       1.037  32.203 225.340  1.00 20.00     0.116 C 
ENDBRANCH  20  37
TORSDOF 7
ENDMDL
MODEL 3
REMARK VINA RESULT:      -7.2      2.320      7.950
REMARK  7 active torsions:
REMARK  status: ('A' for Active; 'I' for Inactive)
REMARK    1  A    between atoms: C2_6  and  C21_2 
REMARK       I    between atoms: C21_2  and  N2_3 
REMARK    2  A    between atoms: C3_9  and  O2_10 
REMARK    3  A    between atoms: C4_12  and  N1_13 
REMARK    4  A    between atoms: C18_17  and  O7_18 
REMARK    5  A    between atoms: C17_20  and  O6_21 
REMARK    6  A    between atoms: C13_31  and  O4_32 
REMARK    7  A    between atoms: C10_36  and  N7_37 
ROOT
HETATM    1  C2  MIY  5181      -1.975  34.725 233.479  1.00 20.00     0.116 C 
HETATM    2  C1  MIY  5181      -1.140  35.621 234.313  1.00 20.00     0.209 C 
HETATM    3  O1  MIY  5181      -1.677  36.309 235.157  1.00 20.00    -0.288 OA
HETATM    4  C3  MIY  5181      -1.351  33.876 232.608  1.00 20.00     0.108 C 
HETATM    5  C4  MIY  5181       0.193  33.653 232.538  1.00 20.00     0.049 C 
HETATM    6  C5  MIY  5181       1.016  34.379 233.656  1.00 20.00     0.088 C 
HETATM    7  C18 MIY  5181       0.386  35.722 234.062  1.00 20.00     0.180 C 
HETATM    8  C17 MIY  5181       1.301  36.334 235.144  1.00 20.00     0.097 C 
HETATM    9  C16 MIY  5181       2.233  35.692 235.888  1.00 20.00     0.030 C 
HETATM   10  C7  MIY  5181       2.534  34.227 235.727  1.00 20.00     0.030 C 
HETATM   11  C6  MIY  5181       1.442  33.534 234.879  1.00 20.00     0.024 C 
HETATM   12  C15 MIY  5181       2.957  36.479 236.910  1.00 20.00     0.194 C 
HETATM   13  O5  MIY  5181       2.904  37.713 237.020  1.00 20.00    -0.287 OA
HETATM   14  C14 MIY  5181       3.712  35.765 237.965  1.00 20.00     0.056 A 
HETATM   15  C9  MIY  5181       3.546  34.390 238.113  1.00 20.00    -0.019 A 
HETATM   16  C8  MIY  5181       2.618  33.625 237.151  1.00 20.00     0.051 C 
HETATM   17  C13 MIY  5181       4.522  36.533 238.793  1.00 20.00     0.080 A 
HETATM   18  C12 MIY  5181       5.223  35.913 239.825  1.00 20.00     0.039 A 
HETATM   19  C11 MIY  5181       5.072  34.537 239.998  1.00 20.00     0.027 A 
HETATM   20  C10 MIY  5181       4.247  33.773 239.158  1.00 20.00     0.017 A 
ENDROOT
BRANCH   1  21
HETATM   21  C21 MIY  5181      -3.463  34.765 233.616  1.00 20.00     0.256 C 
HETATM   22  O8  MIY  5181      -4.188  35.299 232.761  1.00 20.00    -0.268 OA
HETATM   23  N2  MIY  5181      -3.948  34.196 234.743  1.00 20.00    -0.366 N 
ATOM     24  H22 MIY  5181      -3.352  33.757 235.445  1.00  0.00     0.159 HD
ATOM     25  H21 MIY  5181      -4.963  34.223 234.836  1.00  0.00     0.159 HD
ENDBRANCH   1  21
BRANCH   4  26
HETATM   26  O2  MIY  5181      -2.119  33.167 231.761  1.00 20.00    -0.358 OA
ATOM     27  H2  MIY  5181      -2.273  32.251 231.961  1.00  0.00     0.217 HD
ENDBRANCH   4  26
BRANCH   7  28
HETATM   28  O7  MIY  5181       0.541  36.629 232.961  1.00 20.00    -0.374 OA
ATOM     29  H7  MIY  5181       1.273  36.299 232.455  1.00  0.00     0.211 HD
ENDBRANCH   7  28
BRANCH   5  30
HETATM   30  N1  MIY  5181       0.774  33.732 231.094  1.00 20.00    -0.390 N 
HETATM   31  C19 MIY  5181       0.728  32.523 230.231  1.00 20.00     0.149 C 
HETATM   32  C20 MIY  5181       0.408  34.925 230.258  1.00 20.00     0.149 C 
ENDBRANCH   5  30
BRANCH   8  33
HETATM   33  O6  MIY  5181       1.237  37.665 235.309  1.00 20.00    -0.361 OA
ATOM     34  H6  MIY  5181       1.695  38.011 236.067  1.00  0.00     0.217 HD
ENDBRANCH   8  33
BRANCH  17  35
HETATM   35  O4  MIY  5181       4.624  37.891 238.565  1.00 20.00    -0.360 OA
ATOM     36  H4  MIY  5181       4.250  38.294 237.791  1.00  0.00     0.217 HD
ENDBRANCH  17  35
BRANCH  20  37
HETATM   37  N7  MIY  5181       4.103  32.415 239.423  1.00 20.00    -0.291 NA
HETATM   38  C71 MIY  5181       5.231  31.635 238.871  1.00 20.00     0.116 C 
HETATM   39  CN7 MIY  5181       4.231  32.350 240.885  1.00 20.00     0.116 C 
ENDBRANCH  20  37
TORSDOF 7
ENDMDL
MODEL 4
REMARK VINA RESULT:      -6.4      2.849      7.874
REMARK  7 active torsions:
REMARK  status: ('A' for Active; 'I' for Inactive)
REMARK    1  A    between atoms: C2_6  and  C21_2 
REMARK       I    between atoms: C21_2  and  N2_3 
REMARK    2  A    between atoms: C3_9  and  O2_10 
REMARK    3  A    between atoms: C4_12  and  N1_13 
REMARK    4  A    between atoms: C18_17  and  O7_18 
REMARK    5  A    between atoms: C17_20  and  O6_21 
REMARK    6  A    between atoms: C13_31  and  O4_32 
REMARK    7  A    between atoms: C10_36  and  N7_37 
ROOT
HETATM    1  C2  MIY  5181      -1.058  31.812 230.161  1.00 20.00     0.116 C 
HETATM    2  C1  MIY  5181      -1.554  32.824 231.122  1.00 20.00     0.209 C 
HETATM    3  O1  MIY  5181      -2.431  32.514 231.904  1.00 20.00    -0.288 OA
HETATM    4  C3  MIY  5181       0.001  32.137 229.361  1.00 20.00     0.108 C 
HETATM    5  C4  MIY  5181       0.846  33.444 229.494  1.00 20.00     0.049 C 
HETATM    6  C5  MIY  5181       0.490  34.337 230.730  1.00 20.00     0.088 C 
HETATM    7  C18 MIY  5181      -1.006  34.273 231.082  1.00 20.00     0.180 C 
HETATM    8  C17 MIY  5181      -1.220  35.207 232.292  1.00 20.00     0.097 C 
HETATM    9  C16 MIY  5181      -0.274  35.681 233.139  1.00 20.00     0.030 C 
HETATM   10  C7  MIY  5181       1.189  35.365 232.983  1.00 20.00     0.030 C 
HETATM   11  C6  MIY  5181       1.394  34.207 231.978  1.00 20.00     0.024 C 
HETATM   12  C15 MIY  5181      -0.724  36.523 234.269  1.00 20.00     0.194 C 
HETATM   13  O5  MIY  5181      -1.872  36.973 234.401  1.00 20.00    -0.287 OA
HETATM   14  C14 MIY  5181       0.204  36.766 235.397  1.00 20.00     0.056 A 
HETATM   15  C9  MIY  5181       1.380  36.026 235.487  1.00 20.00    -0.019 A 
HETATM   16  C8  MIY  5181       1.724  35.002 234.389  1.00 20.00     0.051 C 
HETATM   17  C13 MIY  5181      -0.187  37.704 236.346  1.00 20.00     0.080 A 
HETATM   18  C12 MIY  5181       0.633  37.940 237.447  1.00 20.00     0.039 A 
HETATM   19  C11 MIY  5181       1.817  37.210 237.563  1.00 20.00     0.027 A 
HETATM   20  C10 MIY  5181       2.198  36.262 236.600  1.00 20.00     0.017 A 
ENDROOT
BRANCH   1  21
HETATM   21  C21 MIY  5181      -1.715  30.471 230.097  1.00 20.00     0.256 C 
HETATM   22  O8  MIY  5181      -1.086  29.421 230.304  1.00 20.00    -0.268 OA
HETATM   23  N2  MIY  5181      -3.030  30.494 229.781  1.00 20.00    -0.366 N 
ATOM     24  H22 MIY  5181      -3.547  31.357 229.611  1.00  0.00     0.159 HD
ATOM     25  H21 MIY  5181      -3.478  29.579 229.737  1.00  0.00     0.159 HD
ENDBRANCH   1  21
BRANCH   4  26
HETATM   26  O2  MIY  5181       0.356  31.264 228.401  1.00 20.00    -0.358 OA
ATOM     27  H2  MIY  5181      -0.008  31.386 227.532  1.00  0.00     0.217 HD
ENDBRANCH   4  26
BRANCH   7  28
HETATM   28  O7  MIY  5181      -1.731  34.935 230.035  1.00 20.00    -0.374 OA
ATOM     29  H7  MIY  5181      -1.425  34.546 229.224  1.00  0.00     0.211 HD
ENDBRANCH   7  28
BRANCH   5  30
HETATM   30  N1  MIY  5181       1.063  34.192 228.144  1.00 20.00    -0.390 N 
HETATM   31  C19 MIY  5181       2.310  33.943 227.374  1.00 20.00     0.149 C 
HETATM   32  C20 MIY  5181      -0.087  34.240 227.179  1.00 20.00     0.149 C 
ENDBRANCH   5  30
BRANCH   8  33
HETATM   33  O6  MIY  5181      -2.462  35.679 232.481  1.00 20.00    -0.361 OA
ATOM     34  H6  MIY  5181      -2.808  36.224 231.782  1.00  0.00     0.217 HD
ENDBRANCH   8  33
BRANCH  17  35
HETATM   35  O4  MIY  5181      -1.372  38.389 236.168  1.00 20.00    -0.360 OA
ATOM     36  H4  MIY  5181      -2.182  38.093 236.568  1.00  0.00     0.217 HD
ENDBRANCH  17  35
BRANCH  20  37
HETATM   37  N7  MIY  5181       3.364  35.535 236.809  1.00 20.00    -0.291 NA
HETATM   38  C71 MIY  5181       4.394  36.349 237.487  1.00 20.00     0.116 C 
HETATM   39  CN7 MIY  5181       2.945  34.511 237.775  1.00 20.00     0.116 C 
ENDBRANCH  20  37
TORSDOF 7
ENDMDL
MODEL 5
REMARK VINA RESULT:      -6.3      2.658      3.875
REMARK  7 active torsions:
REMARK  status: ('A' for Active; 'I' for Inactive)
REMARK    1  A    between atoms: C2_6  and  C21_2 
REMARK       I    between atoms: C21_2  and  N2_3 
REMARK    2  A    between atoms: C3_9  and  O2_10 
REMARK    3  A    between atoms: C4_12  and  N1_13 
REMARK    4  A    between atoms: C18_17  and  O7_18 
REMARK    5  A    between atoms: C17_20  and  O6_21 
REMARK    6  A    between atoms: C13_31  and  O4_32 
REMARK    7  A    between atoms: C10_36  and  N7_37 
ROOT
HETATM    1  C2  MIY  5181      -0.648  36.676 236.496  1.00 20.00     0.116 C 
HETATM    2  C1  MIY  5181      -1.092  35.509 235.698  1.00 20.00     0.209 C 
HETATM    3  O1  MIY  5181      -2.261  35.428 235.375  1.00 20.00    -0.288 OA
HETATM    4  C3  MIY  5181       0.686  36.814 236.762  1.00 20.00     0.108 C 
HETATM    5  C4  MIY  5181       1.810  35.921 236.148  1.00 20.00     0.049 C 
HETATM    6  C5  MIY  5181       1.326  34.906 235.058  1.00 20.00     0.088 C 
HETATM    7  C18 MIY  5181      -0.092  34.380 235.342  1.00 20.00     0.180 C 
HETATM    8  C17 MIY  5181      -0.432  33.383 234.215  1.00 20.00     0.097 C 
HETATM    9  C16 MIY  5181       0.179  33.267 233.012  1.00 20.00     0.030 C 
HETATM   10  C7  MIY  5181       1.350  34.121 232.608  1.00 20.00     0.030 C 
HETATM   11  C6  MIY  5181       1.517  35.314 233.579  1.00 20.00     0.024 C 
HETATM   12  C15 MIY  5181      -0.359  32.267 232.062  1.00 20.00     0.194 C 
HETATM   13  O5  MIY  5181      -1.208  31.409 232.345  1.00 20.00    -0.287 OA
HETATM   14  C14 MIY  5181       0.037  32.345 230.638  1.00 20.00     0.056 A 
HETATM   15  C9  MIY  5181       0.713  33.471 230.176  1.00 20.00    -0.019 A 
HETATM   16  C8  MIY  5181       1.082  34.598 231.160  1.00 20.00     0.051 C 
HETATM   17  C13 MIY  5181      -0.341  31.288 229.818  1.00 20.00     0.080 A 
HETATM   18  C12 MIY  5181      -0.027  31.333 228.462  1.00 20.00     0.039 A 
HETATM   19  C11 MIY  5181       0.648  32.451 227.971  1.00 20.00     0.027 A 
HETATM   20  C10 MIY  5181       1.020  33.515 228.809  1.00 20.00     0.017 A 
ENDROOT
BRANCH   1  21
HETATM   21  C21 MIY  5181      -1.658  37.668 236.977  1.00 20.00     0.256 C 
HETATM   22  O8  MIY  5181      -1.471  38.892 236.885  1.00 20.00    -0.268 OA
HETATM   23  N2  MIY  5181      -2.767  37.130 237.532  1.00 20.00    -0.366 N 
ATOM     24  H22 MIY  5181      -2.921  36.124 237.608  1.00  0.00     0.159 HD
ATOM     25  H21 MIY  5181      -3.455  37.807 237.860  1.00  0.00     0.159 HD
ENDBRANCH   1  21
BRANCH   4  26
HETATM   26  O2  MIY  5181       1.062  37.798 237.599  1.00 20.00    -0.358 OA
ATOM     27  H2  MIY  5181       1.664  37.579 238.300  1.00  0.00     0.217 HD
ENDBRANCH   4  26
BRANCH   7  28
HETATM   28  O7  MIY  5181      -0.023  33.540 236.504  1.00 20.00    -0.374 OA
ATOM     29  H7  MIY  5181      -0.187  32.657 236.193  1.00  0.00     0.211 HD
ENDBRANCH   7  28
BRANCH   5  30
HETATM   30  N1  MIY  5181       2.822  35.372 237.198  1.00 20.00    -0.390 N 
HETATM   31  C19 MIY  5181       3.292  33.967 237.081  1.00 20.00     0.149 C 
HETATM   32  C20 MIY  5181       3.998  36.236 237.554  1.00 20.00     0.149 C 
ENDBRANCH   5  30
BRANCH   8  33
HETATM   33  O6  MIY  5181      -1.376  32.466 234.482  1.00 20.00    -0.361 OA
ATOM     34  H6  MIY  5181      -1.623  32.381 235.396  1.00  0.00     0.217 HD
ENDBRANCH   8  33
BRANCH  17  35
HETATM   35  O4  MIY  5181      -1.008  30.212 230.369  1.00 20.00    -0.360 OA
ATOM     36  H4  MIY  5181      -0.540  29.482 230.757  1.00  0.00     0.217 HD
ENDBRANCH  17  35
BRANCH  20  37
HETATM   37  N7  MIY  5181       1.643  34.621 228.241  1.00 20.00    -0.291 NA
HETATM   38  C71 MIY  5181       2.323  34.268 226.978  1.00 20.00     0.116 C 
HETATM   39  CN7 MIY  5181       0.512  35.483 227.875  1.00 20.00     0.116 C 
ENDBRANCH  20  37
TORSDOF 7
ENDMDL
MODEL 6
REMARK VINA RESULT:      -6.2      3.015      8.329
REMARK  7 active torsions:
REMARK  status: ('A' for Active; 'I' for Inactive)
REMARK    1  A    between atoms: C2_6  and  C21_2 
REMARK       I    between atoms: C21_2  and  N2_3 
REMARK    2  A    between atoms: C3_9  and  O2_10 
REMARK    3  A    between atoms: C4_12  and  N1_13 
REMARK    4  A    between atoms: C18_17  and  O7_18 
REMARK    5  A    between atoms: C17_20  and  O6_21 
REMARK    6  A    between atoms: C13_31  and  O4_32 
REMARK    7  A    between atoms: C10_36  and  N7_37 
ROOT
HETATM    1  C2  MIY  5181       1.116  32.675 227.777  1.00 20.00     0.116 C 
HETATM    2  C1  MIY  5181       0.056  32.750 228.809  1.00 20.00     0.209 C 
HETATM    3  O1  MIY  5181      -0.540  31.736 229.114  1.00 20.00    -0.288 OA
HETATM    4  C3  MIY  5181       1.854  33.797 227.519  1.00 20.00     0.108 C 
HETATM    5  C4  MIY  5181       1.780  35.119 228.348  1.00 20.00     0.049 C 
HETATM    6  C5  MIY  5181       0.880  35.045 229.629  1.00 20.00     0.088 C 
HETATM    7  C18 MIY  5181      -0.328  34.113 229.437  1.00 20.00     0.180 C 
HETATM    8  C17 MIY  5181      -1.133  34.150 230.754  1.00 20.00     0.097 C 
HETATM    9  C16 MIY  5181      -0.701  34.572 231.966  1.00 20.00     0.030 C 
HETATM   10  C7  MIY  5181       0.684  35.115 232.193  1.00 20.00     0.030 C 
HETATM   11  C6  MIY  5181       1.595  34.812 230.980  1.00 20.00     0.024 C 
HETATM   12  C15 MIY  5181      -1.640  34.464 233.105  1.00 20.00     0.194 C 
HETATM   13  O5  MIY  5181      -2.843  34.184 233.005  1.00 20.00    -0.287 OA
HETATM   14  C14 MIY  5181      -1.111  34.575 234.484  1.00 20.00     0.056 A 
HETATM   15  C9  MIY  5181       0.265  34.551 234.693  1.00 20.00    -0.019 A 
HETATM   16  C8  MIY  5181       1.220  34.457 233.488  1.00 20.00     0.051 C 
HETATM   17  C13 MIY  5181      -2.042  34.650 235.514  1.00 20.00     0.080 A 
HETATM   18  C12 MIY  5181      -1.595  34.717 236.831  1.00 20.00     0.039 A 
HETATM   19  C11 MIY  5181      -0.221  34.691 237.070  1.00 20.00     0.027 A 
HETATM   20  C10 MIY  5181       0.709  34.611 236.021  1.00 20.00     0.017 A 
ENDROOT
BRANCH   1  21
HETATM   21  C21 MIY  5181       1.358  31.387 227.058  1.00 20.00     0.256 C 
HETATM   22  O8  MIY  5181       1.221  31.286 225.829  1.00 20.00    -0.268 OA
HETATM   23  N2  MIY  5181       1.713  30.350 227.850  1.00 20.00    -0.366 N 
ATOM     24  H22 MIY  5181       1.825  30.433 228.860  1.00  0.00     0.159 HD
ATOM     25  H21 MIY  5181       1.878  29.471 227.359  1.00  0.00     0.159 HD
ENDBRANCH   1  21
BRANCH   4  26
HETATM   26  O2  MIY  5181       2.719  33.758 226.490  1.00 20.00    -0.358 OA
ATOM     27  H2  MIY  5181       3.008  34.584 226.121  1.00  0.00     0.217 HD
ENDBRANCH   4  26
BRANCH   7  28
HETATM   28  O7  MIY  5181      -1.218  34.737 228.500  1.00 20.00    -0.374 OA
ATOM     29  H7  MIY  5181      -1.318  34.117 227.788  1.00  0.00     0.211 HD
ENDBRANCH   7  28
BRANCH   5  30
HETATM   30  N1  MIY  5181       1.630  36.401 227.475  1.00 20.00    -0.390 N 
HETATM   31  C19 MIY  5181       0.657  37.445 227.890  1.00 20.00     0.149 C 
HETATM   32  C20 MIY  5181       2.886  37.081 227.013  1.00 20.00     0.149 C 
ENDBRANCH   5  30
BRANCH   8  33
HETATM   33  O6  MIY  5181      -2.431  33.816 230.680  1.00 20.00    -0.361 OA
ATOM     34  H6  MIY  5181      -2.965  34.353 230.105  1.00  0.00     0.217 HD
ENDBRANCH   8  33
BRANCH  17  35
HETATM   35  O4  MIY  5181      -3.387  34.670 235.206  1.00 20.00    -0.360 OA
ATOM     36  H4  MIY  5181      -3.748  34.121 234.519  1.00  0.00     0.217 HD
ENDBRANCH  17  35
BRANCH  20  37
HETATM   37  N7  MIY  5181       2.062  34.536 236.337  1.00 20.00    -0.291 NA
HETATM   38  C71 MIY  5181       2.403  35.428 237.465  1.00 20.00     0.116 C 
HETATM   39  CN7 MIY  5181       2.208  33.163 236.837  1.00 20.00     0.116 C 
ENDBRANCH  20  37
TORSDOF 7
ENDMDL
MODEL 7
REMARK VINA RESULT:      -6.1      2.029      2.729
REMARK  7 active torsions:
REMARK  status: ('A' for Active; 'I' for Inactive)
REMARK    1  A    between atoms: C2_6  and  C21_2 
REMARK       I    between atoms: C21_2  and  N2_3 
REMARK    2  A    between atoms: C3_9  and  O2_10 
REMARK    3  A    between atoms: C4_12  and  N1_13 
REMARK    4  A    between atoms: C18_17  and  O7_18 
REMARK    5  A    between atoms: C17_20  and  O6_21 
REMARK    6  A    between atoms: C13_31  and  O4_32 
REMARK    7  A    between atoms: C10_36  and  N7_37 
ROOT
HETATM    1  C2  MIY  5181       0.116  36.237 236.118  1.00 20.00     0.116 C 
HETATM    2  C1  MIY  5181      -0.809  36.102 234.968  1.00 20.00     0.209 C 
HETATM    3  O1  MIY  5181      -1.405  37.085 234.574  1.00 20.00    -0.288 OA
HETATM    4  C3  MIY  5181       0.862  35.153 236.485  1.00 20.00     0.108 C 
HETATM    5  C4  MIY  5181       0.942  33.817 235.679  1.00 20.00     0.049 C 
HETATM    6  C5  MIY  5181       0.201  33.832 234.299  1.00 20.00     0.088 C 
HETATM    7  C18 MIY  5181      -1.059  34.714 234.326  1.00 20.00     0.180 C 
HETATM    8  C17 MIY  5181      -1.697  34.623 232.924  1.00 20.00     0.097 C 
HETATM    9  C16 MIY  5181      -1.105  34.202 231.780  1.00 20.00     0.030 C 
HETATM   10  C7  MIY  5181       0.318  33.716 231.731  1.00 20.00     0.030 C 
HETATM   11  C6  MIY  5181       1.063  34.076 233.039  1.00 20.00     0.024 C 
HETATM   12  C15 MIY  5181      -1.903  34.253 230.535  1.00 20.00     0.194 C 
HETATM   13  O5  MIY  5181      -3.121  34.482 230.486  1.00 20.00    -0.287 OA
HETATM   14  C14 MIY  5181      -1.209  34.143 229.232  1.00 20.00     0.056 A 
HETATM   15  C9  MIY  5181       0.181  34.224 229.189  1.00 20.00    -0.019 A 
HETATM   16  C8  MIY  5181       0.979  34.376 230.498  1.00 20.00     0.051 C 
HETATM   17  C13 MIY  5181      -2.005  34.013 228.100  1.00 20.00     0.080 A 
HETATM   18  C12 MIY  5181      -1.400  33.946 226.847  1.00 20.00     0.039 A 
HETATM   19  C11 MIY  5181      -0.010  34.027 226.774  1.00 20.00     0.027 A 
HETATM   20  C10 MIY  5181       0.783  34.163 227.925  1.00 20.00     0.017 A 
ENDROOT
BRANCH   1  21
HETATM   21  C21 MIY  5181       0.216  37.546 236.835  1.00 20.00     0.256 C 
HETATM   22  O8  MIY  5181       1.310  38.045 237.140  1.00 20.00    -0.268 OA
HETATM   23  N2  MIY  5181      -0.969  38.123 237.137  1.00 20.00    -0.366 N 
ATOM     24  H22 MIY  5181      -1.869  37.712 236.886  1.00  0.00     0.159 HD
ATOM     25  H21 MIY  5181      -0.900  39.015 237.626  1.00  0.00     0.159 HD
ENDBRANCH   1  21
BRANCH   4  26
HETATM   26  O2  MIY  5181       1.595  35.244 237.609  1.00 20.00    -0.358 OA
ATOM     27  H2  MIY  5181       1.217  35.703 238.350  1.00  0.00     0.217 HD
ENDBRANCH   4  26
BRANCH   7  28
HETATM   28  O7  MIY  5181      -2.029  34.067 235.162  1.00 20.00    -0.374 OA
ATOM     29  H7  MIY  5181      -2.338  33.318 234.666  1.00  0.00     0.211 HD
ENDBRANCH   7  28
BRANCH   5  30
HETATM   30  N1  MIY  5181       0.741  32.543 236.554  1.00 20.00    -0.390 N 
HETATM   31  C19 MIY  5181      -0.288  32.560 237.626  1.00 20.00     0.149 C 
HETATM   32  C20 MIY  5181       0.670  31.217 235.851  1.00 20.00     0.149 C 
ENDBRANCH   5  30
BRANCH   8  33
HETATM   33  O6  MIY  5181      -3.007  34.902 232.835  1.00 20.00    -0.361 OA
ATOM     34  H6  MIY  5181      -3.530  34.677 233.596  1.00  0.00     0.217 HD
ENDBRANCH   8  33
BRANCH  17  35
HETATM   35  O4  MIY  5181      -3.376  33.940 228.245  1.00 20.00    -0.360 OA
ATOM     36  H4  MIY  5181      -3.952  34.587 227.855  1.00  0.00     0.217 HD
ENDBRANCH  17  35
BRANCH  20  37
HETATM   37  N7  MIY  5181       2.160  34.292 227.772  1.00 20.00    -0.291 NA
HETATM   38  C71 MIY  5181       2.720  33.180 226.976  1.00 20.00     0.116 C 
HETATM   39  CN7 MIY  5181       2.288  35.498 226.944  1.00 20.00     0.116 C 
ENDBRANCH  20  37
TORSDOF 7
ENDMDL
MODEL 8
REMARK VINA RESULT:      -6.0      5.105      7.628
REMARK  7 active torsions:
REMARK  status: ('A' for Active; 'I' for Inactive)
REMARK    1  A    between atoms: C2_6  and  C21_2 
REMARK       I    between atoms: C21_2  and  N2_3 
REMARK    2  A    between atoms: C3_9  and  O2_10 
REMARK    3  A    between atoms: C4_12  and  N1_13 
REMARK    4  A    between atoms: C18_17  and  O7_18 
REMARK    5  A    between atoms: C17_20  and  O6_21 
REMARK    6  A    between atoms: C13_31  and  O4_32 
REMARK    7  A    between atoms: C10_36  and  N7_37 
ROOT
HETATM    1  C2  MIY  5181      -0.774  34.313 230.642  1.00 20.00     0.116 C 
HETATM    2  C1  MIY  5181      -0.646  35.666 230.052  1.00 20.00     0.209 C 
HETATM    3  O1  MIY  5181       0.388  35.967 229.488  1.00 20.00    -0.288 OA
HETATM    4  C3  MIY  5181      -1.977  33.947 231.178  1.00 20.00     0.108 C 
HETATM    5  C4  MIY  5181      -3.289  34.788 231.071  1.00 20.00     0.049 C 
HETATM    6  C5  MIY  5181      -3.186  36.059 230.161  1.00 20.00     0.088 C 
HETATM    7  C18 MIY  5181      -1.789  36.700 230.213  1.00 20.00     0.180 C 
HETATM    8  C17 MIY  5181      -1.834  37.942 229.298  1.00 20.00     0.097 C 
HETATM    9  C16 MIY  5181      -2.744  38.217 228.335  1.00 20.00     0.030 C 
HETATM   10  C7  MIY  5181      -3.910  37.315 228.035  1.00 20.00     0.030 C 
HETATM   11  C6  MIY  5181      -3.725  35.938 228.716  1.00 20.00     0.024 C 
HETATM   12  C15 MIY  5181      -2.553  39.452 227.541  1.00 20.00     0.194 C 
HETATM   13  O5  MIY  5181      -1.728  40.339 227.804  1.00 20.00    -0.287 OA
HETATM   14  C14 MIY  5181      -3.300  39.612 226.273  1.00 20.00     0.056 A 
HETATM   15  C9  MIY  5181      -3.983  38.524 225.738  1.00 20.00    -0.019 A 
HETATM   16  C8  MIY  5181      -3.994  37.182 226.495  1.00 20.00     0.051 C 
HETATM   17  C13 MIY  5181      -3.232  40.855 225.653  1.00 20.00     0.080 A 
HETATM   18  C12 MIY  5181      -3.886  41.045 224.438  1.00 20.00     0.039 A 
HETATM   19  C11 MIY  5181      -4.576  39.970 223.877  1.00 20.00     0.027 A 
HETATM   20  C10 MIY  5181      -4.633  38.718 224.512  1.00 20.00     0.017 A 
ENDROOT
BRANCH   1  21
HETATM   21  C21 MIY  5181       0.400  33.388 230.627  1.00 20.00     0.256 C 
HETATM   22  O8  MIY  5181       0.930  32.982 231.674  1.00 20.00    -0.268 OA
HETATM   23  N2  MIY  5181       0.845  33.049 229.396  1.00 20.00    -0.366 N 
ATOM     24  H22 MIY  5181       0.410  33.383 228.535  1.00  0.00     0.159 HD
ATOM     25  H21 MIY  5181       1.646  32.418 229.386  1.00  0.00     0.159 HD
ENDBRANCH   1  21
BRANCH   4  26
HETATM   26  O2  MIY  5181      -2.044  32.773 231.830  1.00 20.00    -0.358 OA
ATOM     27  H2  MIY  5181      -2.892  32.350 231.899  1.00  0.00     0.217 HD
ENDBRANCH   4  26
BRANCH   7  28
HETATM   28  O7  MIY  5181      -1.617  37.270 231.519  1.00 20.00    -0.374 OA
ATOM     29  H7  MIY  5181      -1.620  36.537 232.123  1.00  0.00     0.211 HD
ENDBRANCH   7  28
BRANCH   5  30
HETATM   30  N1  MIY  5181      -4.030  34.972 232.429  1.00 20.00    -0.390 N 
HETATM   31  C19 MIY  5181      -5.163  34.068 232.760  1.00 20.00     0.149 C 
HETATM   32  C20 MIY  5181      -3.193  35.153 233.663  1.00 20.00     0.149 C 
ENDBRANCH   5  30
BRANCH   8  33
HETATM   33  O6  MIY  5181      -0.927  38.903 229.538  1.00 20.00    -0.361 OA
ATOM     34  H6  MIY  5181      -1.129  39.493 230.255  1.00  0.00     0.217 HD
ENDBRANCH   8  33
BRANCH  17  35
HETATM   35  O4  MIY  5181      -2.530  41.875 226.263  1.00 20.00    -0.360 OA
ATOM     36  H4  MIY  5181      -2.204  41.792 227.151  1.00  0.00     0.217 HD
ENDBRANCH  17  35
BRANCH  20  37
HETATM   37  N7  MIY  5181      -5.294  37.677 223.869  1.00 20.00    -0.291 NA
HETATM   38  C71 MIY  5181      -6.545  38.143 223.236  1.00 20.00     0.116 C 
HETATM   39  CN7 MIY  5181      -4.379  37.333 222.773  1.00 20.00     0.116 C 
ENDBRANCH  20  37
TORSDOF 7
ENDMDL
MODEL 9
REMARK VINA RESULT:      -6.0      2.823      8.060
REMARK  7 active torsions:
REMARK  status: ('A' for Active; 'I' for Inactive)
REMARK    1  A    between atoms: C2_6  and  C21_2 
REMARK       I    between atoms: C21_2  and  N2_3 
REMARK    2  A    between atoms: C3_9  and  O2_10 
REMARK    3  A    between atoms: C4_12  and  N1_13 
REMARK    4  A    between atoms: C18_17  and  O7_18 
REMARK    5  A    between atoms: C17_20  and  O6_21 
REMARK    6  A    between atoms: C13_31  and  O4_32 
REMARK    7  A    between atoms: C10_36  and  N7_37 
ROOT
HETATM    1  C2  MIY  5181      -0.141  35.474 229.414  1.00 20.00     0.116 C 
HETATM    2  C1  MIY  5181       0.552  34.473 230.259  1.00 20.00     0.209 C 
HETATM    3  O1  MIY  5181       1.595  33.991 229.864  1.00 20.00    -0.288 OA
HETATM    4  C3  MIY  5181      -1.254  36.090 229.914  1.00 20.00     0.108 C 
HETATM    5  C4  MIY  5181      -1.766  35.944 231.382  1.00 20.00     0.049 C 
HETATM    6  C5  MIY  5181      -0.822  35.131 232.332  1.00 20.00     0.088 C 
HETATM    7  C18 MIY  5181      -0.083  34.003 231.592  1.00 20.00     0.180 C 
HETATM    8  C17 MIY  5181       0.786  33.277 232.640  1.00 20.00     0.097 C 
HETATM    9  C16 MIY  5181       1.158  33.739 233.858  1.00 20.00     0.030 C 
HETATM   10  C7  MIY  5181       0.725  35.079 234.388  1.00 20.00     0.030 C 
HETATM   11  C6  MIY  5181       0.115  35.942 233.257  1.00 20.00     0.024 C 
HETATM   12  C15 MIY  5181       2.046  32.882 234.675  1.00 20.00     0.194 C 
HETATM   13  O5  MIY  5181       2.332  31.705 234.410  1.00 20.00    -0.287 OA
HETATM   14  C14 MIY  5181       2.751  33.478 235.833  1.00 20.00     0.056 A 
HETATM   15  C9  MIY  5181       2.751  34.861 235.997  1.00 20.00    -0.019 A 
HETATM   16  C8  MIY  5181       1.978  35.748 235.003  1.00 20.00     0.051 C 
HETATM   17  C13 MIY  5181       3.428  32.605 236.678  1.00 20.00     0.080 A 
HETATM   18  C12 MIY  5181       4.140  33.121 237.759  1.00 20.00     0.039 A 
HETATM   19  C11 MIY  5181       4.159  34.503 237.945  1.00 20.00     0.027 A 
HETATM   20  C10 MIY  5181       3.475  35.374 237.082  1.00 20.00     0.017 A 
ENDROOT
BRANCH   1  21
HETATM   21  C21 MIY  5181       0.395  35.790 228.055  1.00 20.00     0.256 C 
HETATM   22  O8  MIY  5181       0.837  36.914 227.767  1.00 20.00    -0.268 OA
HETATM   23  N2  MIY  5181       0.340  34.770 227.169  1.00 20.00    -0.366 N 
ATOM     24  H22 MIY  5181      -0.023  33.846 227.405  1.00  0.00     0.159 HD
ATOM     25  H21 MIY  5181       0.706  34.985 226.242  1.00  0.00     0.159 HD
ENDBRANCH   1  21
BRANCH   4  26
HETATM   26  O2  MIY  5181      -1.952  36.894 229.091  1.00 20.00    -0.358 OA
ATOM     27  H2  MIY  5181      -1.475  37.357 228.412  1.00  0.00     0.217 HD
ENDBRANCH   4  26
BRANCH   7  28
HETATM   28  O7  MIY  5181      -1.051  33.007 231.233  1.00 20.00    -0.374 OA
ATOM     29  H7  MIY  5181      -0.618  32.171 231.355  1.00  0.00     0.211 HD
ENDBRANCH   7  28
BRANCH   5  30
HETATM   30  N1  MIY  5181      -3.288  35.627 231.488  1.00 20.00    -0.390 N 
HETATM   31  C19 MIY  5181      -3.879  34.615 230.574  1.00 20.00     0.149 C 
HETATM   32  C20 MIY  5181      -3.865  35.420 232.859  1.00 20.00     0.149 C 
ENDBRANCH   5  30
BRANCH   8  33
HETATM   33  O6  MIY  5181       1.141  32.013 232.361  1.00 20.00    -0.361 OA
ATOM     34  H6  MIY  5181       1.097  31.401 233.087  1.00  0.00     0.217 HD
ENDBRANCH   8  33
BRANCH  17  35
HETATM   35  O4  MIY  5181       3.368  31.248 236.434  1.00 20.00    -0.360 OA
ATOM     36  H4  MIY  5181       3.058  30.638 237.093  1.00  0.00     0.217 HD
ENDBRANCH  17  35
BRANCH  20  37
HETATM   37  N7  MIY  5181       3.582  36.744 237.297  1.00 20.00    -0.291 NA
HETATM   38  C71 MIY  5181       2.345  37.295 237.888  1.00 20.00     0.116 C 
HETATM   39  CN7 MIY  5181       4.613  36.833 238.340  1.00 20.00     0.116 C 
ENDBRANCH  20  37
TORSDOF 7
ENDMDL
