MODEL 1
REMARK VINA RESULT:      -5.7      0.000      0.000
REMARK  3 active torsions:
REMARK  status: ('A' for Active; 'I' for Inactive)
REMARK    1  A    between atoms: C3_4  and  C7_2 
REMARK    2  A    between atoms: C2_9  and  O3_10 
REMARK    3  A    between atoms: C8_11  and  O3_10 
ROOT
HETATM    1  C3  AIN  1536      -1.773  40.611 227.289  1.00 20.00     0.074 A 
HETATM    2  C4  AIN  1536      -2.744  39.648 227.041  1.00 20.00     0.021 A 
HETATM    3  C5  AIN  1536      -3.301  39.529 225.776  1.00 20.00     0.001 A 
HETATM    4  C6  AIN  1536      -2.899  40.365 224.738  1.00 20.00     0.003 A 
HETATM    5  C1  AIN  1536      -1.928  41.347 224.935  1.00 20.00     0.038 A 
HETATM    6  C2  AIN  1536      -1.351  41.521 226.189  1.00 20.00     0.096 A 
ENDROOT
BRANCH   6   7
HETATM    7  O3  AIN  1536      -0.355  42.448 226.401  1.00 20.00    -0.278 OA
BRANCH   7   8
HETATM    8  C8  AIN  1536       1.055  42.307 226.742  1.00 20.00     0.260 C 
HETATM    9  C9  AIN  1536       1.884  41.120 226.360  1.00 20.00     0.126 C 
HETATM   10  O4  AIN  1536       1.587  43.223 227.340  1.00 20.00    -0.265 OA
ENDBRANCH   7   8
ENDBRANCH   6   7
BRANCH   1  11
HETATM   11  C7  AIN  1536      -1.184  40.723 228.668  1.00 20.00     0.212 C 
HETATM   12  O1  AIN  1536      -0.880  39.715 229.286  1.00 20.00    -0.644 OA
HETATM   13  O2  AIN  1536      -0.995  41.814 229.179  1.00 20.00    -0.644 OA
ENDBRANCH   1  11
TORSDOF 3
ENDMDL
MODEL 2
REMARK VINA RESULT:      -5.6      2.272      3.152
REMARK  3 active torsions:
REMARK  status: ('A' for Active; 'I' for Inactive)
REMARK    1  A    between atoms: C3_4  and  C7_2 
REMARK    2  A    between atoms: C2_9  and  O3_10 
REMARK    3  A    between atoms: C8_11  and  O3_10 
ROOT
HETATM    1  C3  AIN  1536      -0.080  39.917 227.895  1.00 20.00     0.074 A 
HETATM    2  C4  AIN  1536      -0.497  38.639 228.247  1.00 20.00     0.021 A 
HETATM    3  C5  AIN  1536       0.332  37.548 228.022  1.00 20.00     0.001 A 
HETATM    4  C6  AIN  1536       1.588  37.713 227.446  1.00 20.00     0.003 A 
HETATM    5  C1  AIN  1536       2.053  38.975 227.076  1.00 20.00     0.038 A 
HETATM    6  C2  AIN  1536       1.254  40.100 227.262  1.00 20.00     0.096 A 
ENDROOT
BRANCH   6   7
HETATM    7  O3  AIN  1536       1.706  41.364 226.952  1.00 20.00    -0.278 OA
BRANCH   7   8
HETATM    8  C8  AIN  1536       2.287  42.421 227.769  1.00 20.00     0.260 C 
HETATM    9  C9  AIN  1536       3.531  42.250 228.584  1.00 20.00     0.126 C 
HETATM   10  O4  AIN  1536       1.742  43.509 227.756  1.00 20.00    -0.265 OA
ENDBRANCH   7   8
ENDBRANCH   6   7
BRANCH   1  11
HETATM   11  C7  AIN  1536      -0.995  41.083 228.146  1.00 20.00     0.212 C 
HETATM   12  O1  AIN  1536      -1.920  41.309 227.381  1.00 20.00    -0.644 OA
HETATM   13  O2  AIN  1536      -0.834  41.806 229.115  1.00 20.00    -0.644 OA
ENDBRANCH   1  11
TORSDOF 3
ENDMDL
MODEL 3
REMARK VINA RESULT:      -5.6      2.646      4.863
REMARK  3 active torsions:
REMARK  status: ('A' for Active; 'I' for Inactive)
REMARK    1  A    between atoms: C3_4  and  C7_2 
REMARK    2  A    between atoms: C2_9  and  O3_10 
REMARK    3  A    between atoms: C8_11  and  O3_10 
ROOT
HETATM    1  C3  AIN  1536       1.039  41.225 228.242  1.00 20.00     0.074 A 
HETATM    2  C4  AIN  1536       1.650  42.371 228.735  1.00 20.00     0.021 A 
HETATM    3  C5  AIN  1536       3.025  42.528 228.631  1.00 20.00     0.001 A 
HETATM    4  C6  AIN  1536       3.812  41.548 228.034  1.00 20.00     0.003 A 
HETATM    5  C1  AIN  1536       3.246  40.380 227.523  1.00 20.00     0.038 A 
HETATM    6  C2  AIN  1536       1.875  40.164 227.618  1.00 20.00     0.096 A 
ENDROOT
BRANCH   6   7
HETATM    7  O3  AIN  1536       1.283  39.043 227.079  1.00 20.00    -0.278 OA
BRANCH   7   8
HETATM    8  C8  AIN  1536       1.391  37.627 227.406  1.00 20.00     0.260 C 
HETATM    9  C9  AIN  1536       2.502  36.748 226.922  1.00 20.00     0.126 C 
HETATM   10  O4  AIN  1536       0.545  37.151 228.140  1.00 20.00    -0.265 OA
ENDBRANCH   7   8
ENDBRANCH   6   7
BRANCH   1  11
HETATM   11  C7  AIN  1536      -0.452  41.076 228.367  1.00 20.00     0.212 C 
HETATM   12  O1  AIN  1536      -1.194  41.724 227.645  1.00 20.00    -0.644 OA
HETATM   13  O2  AIN  1536      -0.936  40.304 229.178  1.00 20.00    -0.644 OA
ENDBRANCH   1  11
TORSDOF 3
ENDMDL
MODEL 4
REMARK VINA RESULT:      -5.4      1.671      3.130
REMARK  3 active torsions:
REMARK  status: ('A' for Active; 'I' for Inactive)
REMARK    1  A    between atoms: C3_4  and  C7_2 
REMARK    2  A    between atoms: C2_9  and  O3_10 
REMARK    3  A    between atoms: C8_11  and  O3_10 
ROOT
HETATM    1  C3  AIN  1536      -0.417  41.494 226.679  1.00 20.00     0.074 A 
HETATM    2  C4  AIN  1536      -1.486  41.386 225.798  1.00 20.00     0.021 A 
HETATM    3  C5  AIN  1536      -2.567  40.573 226.109  1.00 20.00     0.001 A 
HETATM    4  C6  AIN  1536      -2.601  39.856 227.301  1.00 20.00     0.003 A 
HETATM    5  C1  AIN  1536      -1.553  39.930 228.219  1.00 20.00     0.038 A 
HETATM    6  C2  AIN  1536      -0.437  40.716 227.949  1.00 20.00     0.096 A 
ENDROOT
BRANCH   6   7
HETATM    7  O3  AIN  1536       0.590  40.848 228.857  1.00 20.00    -0.278 OA
BRANCH   7   8
HETATM    8  C8  AIN  1536       1.236  42.018 229.439  1.00 20.00     0.260 C 
HETATM    9  C9  AIN  1536       2.720  42.209 229.479  1.00 20.00     0.126 C 
HETATM   10  O4  AIN  1536       0.520  42.895 229.883  1.00 20.00    -0.265 OA
ENDBRANCH   7   8
ENDBRANCH   6   7
BRANCH   1  11
HETATM   11  C7  AIN  1536       0.744  42.380 226.321  1.00 20.00     0.212 C 
HETATM   12  O1  AIN  1536       0.600  43.592 226.286  1.00 20.00    -0.644 OA
HETATM   13  O2  AIN  1536       1.839  41.904 226.073  1.00 20.00    -0.644 OA
ENDBRANCH   1  11
TORSDOF 3
ENDMDL
MODEL 5
REMARK VINA RESULT:      -5.3      1.634      2.415
REMARK  3 active torsions:
REMARK  status: ('A' for Active; 'I' for Inactive)
REMARK    1  A    between atoms: C3_4  and  C7_2 
REMARK    2  A    between atoms: C2_9  and  O3_10 
REMARK    3  A    between atoms: C8_11  and  O3_10 
ROOT
HETATM    1  C3  AIN  1536      -3.094  39.297 226.974  1.00 20.00     0.074 A 
HETATM    2  C4  AIN  1536      -3.683  38.863 225.793  1.00 20.00     0.021 A 
HETATM    3  C5  AIN  1536      -3.665  39.672 224.665  1.00 20.00     0.001 A 
HETATM    4  C6  AIN  1536      -3.060  40.924 224.696  1.00 20.00     0.003 A 
HETATM    5  C1  AIN  1536      -2.454  41.407 225.856  1.00 20.00     0.038 A 
HETATM    6  C2  AIN  1536      -2.460  40.644 227.020  1.00 20.00     0.096 A 
ENDROOT
BRANCH   6   7
HETATM    7  O3  AIN  1536      -1.827  41.072 228.166  1.00 20.00    -0.278 OA
BRANCH   7   8
HETATM    8  C8  AIN  1536      -0.419  41.250 228.496  1.00 20.00     0.260 C 
HETATM    9  C9  AIN  1536       0.672  40.369 227.972  1.00 20.00     0.126 C 
HETATM   10  O4  AIN  1536      -0.121  42.188 229.211  1.00 20.00    -0.265 OA
ENDBRANCH   7   8
ENDBRANCH   6   7
BRANCH   1  11
HETATM   11  C7  AIN  1536      -3.126  38.405 228.183  1.00 20.00     0.212 C 
HETATM   12  O1  AIN  1536      -2.099  37.876 228.580  1.00 20.00    -0.644 OA
HETATM   13  O2  AIN  1536      -4.168  38.207 228.786  1.00 20.00    -0.644 OA
ENDBRANCH   1  11
TORSDOF 3
ENDMDL
MODEL 6
REMARK VINA RESULT:      -5.3      1.791      3.157
REMARK  3 active torsions:
REMARK  status: ('A' for Active; 'I' for Inactive)
REMARK    1  A    between atoms: C3_4  and  C7_2 
REMARK    2  A    between atoms: C2_9  and  O3_10 
REMARK    3  A    between atoms: C8_11  and  O3_10 
ROOT
HETATM    1  C3  AIN  1536      -2.117  39.857 227.070  1.00 20.00     0.074 A 
HETATM    2  C4  AIN  1536      -3.330  39.179 227.082  1.00 20.00     0.021 A 
HETATM    3  C5  AIN  1536      -3.534  38.128 227.965  1.00 20.00     0.001 A 
HETATM    4  C6  AIN  1536      -2.534  37.736 228.850  1.00 20.00     0.003 A 
HETATM    5  C1  AIN  1536      -1.299  38.385 228.878  1.00 20.00     0.038 A 
HETATM    6  C2  AIN  1536      -1.036  39.433 228.001  1.00 20.00     0.096 A 
ENDROOT
BRANCH   6   7
HETATM    7  O3  AIN  1536       0.155  40.123 228.040  1.00 20.00    -0.278 OA
BRANCH   7   8
HETATM    8  C8  AIN  1536       0.555  41.343 228.730  1.00 20.00     0.260 C 
HETATM    9  C9  AIN  1536       1.972  41.821 228.811  1.00 20.00     0.126 C 
HETATM   10  O4  AIN  1536      -0.320  42.019 229.235  1.00 20.00    -0.265 OA
ENDBRANCH   7   8
ENDBRANCH   6   7
BRANCH   1  11
HETATM   11  C7  AIN  1536      -1.919  40.992 226.104  1.00 20.00     0.212 C 
HETATM   12  O1  AIN  1536      -1.667  40.759 224.932  1.00 20.00    -0.644 OA
HETATM   13  O2  AIN  1536      -2.017  42.151 226.473  1.00 20.00    -0.644 OA
ENDBRANCH   1  11
TORSDOF 3
ENDMDL
MODEL 7
REMARK VINA RESULT:      -5.2     10.357     12.703
REMARK  3 active torsions:
REMARK  status: ('A' for Active; 'I' for Inactive)
REMARK    1  A    between atoms: C3_4  and  C7_2 
REMARK    2  A    between atoms: C2_9  and  O3_10 
REMARK    3  A    between atoms: C8_11  and  O3_10 
ROOT
HETATM    1  C3  AIN  1536       2.681  36.903 237.196  1.00 20.00     0.074 A 
HETATM    2  C4  AIN  1536       3.792  37.630 237.608  1.00 20.00     0.021 A 
HETATM    3  C5  AIN  1536       4.672  37.094 238.538  1.00 20.00     0.001 A 
HETATM    4  C6  AIN  1536       4.460  35.826 239.071  1.00 20.00     0.003 A 
HETATM    5  C1  AIN  1536       3.361  35.055 238.691  1.00 20.00     0.038 A 
HETATM    6  C2  AIN  1536       2.439  35.553 237.776  1.00 20.00     0.096 A 
ENDROOT
BRANCH   6   7
HETATM    7  O3  AIN  1536       1.372  34.796 237.344  1.00 20.00    -0.278 OA
BRANCH   7   8
HETATM    8  C8  AIN  1536       1.234  33.827 236.264  1.00 20.00     0.260 C 
HETATM    9  C9  AIN  1536       2.216  33.694 235.141  1.00 20.00     0.126 C 
HETATM   10  O4  AIN  1536       0.285  33.068 236.304  1.00 20.00    -0.265 OA
ENDBRANCH   7   8
ENDBRANCH   6   7
BRANCH   1  11
HETATM   11  C7  AIN  1536       1.741  37.504 236.190  1.00 20.00     0.212 C 
HETATM   12  O1  AIN  1536       1.934  37.334 234.996  1.00 20.00    -0.644 OA
HETATM   13  O2  AIN  1536       0.774  38.155 236.549  1.00 20.00    -0.644 OA
ENDBRANCH   1  11
TORSDOF 3
ENDMDL
MODEL 8
REMARK VINA RESULT:      -5.2      1.885      4.508
REMARK  3 active torsions:
REMARK  status: ('A' for Active; 'I' for Inactive)
REMARK    1  A    between atoms: C3_4  and  C7_2 
REMARK    2  A    between atoms: C2_9  and  O3_10 
REMARK    3  A    between atoms: C8_11  and  O3_10 
ROOT
HETATM    1  C3  AIN  1536       1.682  41.147 228.050  1.00 20.00     0.074 A 
HETATM    2  C4  AIN  1536       3.028  40.973 227.754  1.00 20.00     0.021 A 
HETATM    3  C5  AIN  1536       3.485  39.754 227.272  1.00 20.00     0.001 A 
HETATM    4  C6  AIN  1536       2.608  38.691 227.077  1.00 20.00     0.003 A 
HETATM    5  C1  AIN  1536       1.247  38.815 227.359  1.00 20.00     0.038 A 
HETATM    6  C2  AIN  1536       0.741  40.009 227.862  1.00 20.00     0.096 A 
ENDROOT
BRANCH   6   7
HETATM    7  O3  AIN  1536      -0.605  40.177 228.103  1.00 20.00    -0.278 OA
BRANCH   7   8
HETATM    8  C8  AIN  1536      -1.730  40.449 227.217  1.00 20.00     0.260 C 
HETATM    9  C9  AIN  1536      -1.731  41.540 226.191  1.00 20.00     0.126 C 
HETATM   10  O4  AIN  1536      -2.703  39.724 227.301  1.00 20.00    -0.265 OA
ENDBRANCH   7   8
ENDBRANCH   6   7
BRANCH   1  11
HETATM   11  C7  AIN  1536       1.211  42.476 228.573  1.00 20.00     0.212 C 
HETATM   12  O1  AIN  1536       1.423  43.494 227.933  1.00 20.00    -0.644 OA
HETATM   13  O2  AIN  1536       0.605  42.552 229.629  1.00 20.00    -0.644 OA
ENDBRANCH   1  11
TORSDOF 3
ENDMDL
MODEL 9
REMARK VINA RESULT:      -5.2     11.271     12.643
REMARK  3 active torsions:
REMARK  status: ('A' for Active; 'I' for Inactive)
REMARK    1  A    between atoms: C3_4  and  C7_2 
REMARK    2  A    between atoms: C2_9  and  O3_10 
REMARK    3  A    between atoms: C8_11  and  O3_10 
ROOT
HETATM    1  C3  AIN  1536       2.337  36.726 237.525  1.00 20.00     0.074 A 
HETATM    2  C4  AIN  1536       1.519  37.773 237.118  1.00 20.00     0.021 A 
HETATM    3  C5  AIN  1536       0.244  37.515 236.635  1.00 20.00     0.001 A 
HETATM    4  C6  AIN  1536      -0.237  36.212 236.551  1.00 20.00     0.003 A 
HETATM    5  C1  AIN  1536       0.544  35.126 236.947  1.00 20.00     0.038 A 
HETATM    6  C2  AIN  1536       1.837  35.327 237.421  1.00 20.00     0.096 A 
ENDROOT
BRANCH   6   7
HETATM    7  O3  AIN  1536       2.613  34.280 237.866  1.00 20.00    -0.278 OA
BRANCH   7   8
HETATM    8  C8  AIN  1536       3.523  33.376 237.174  1.00 20.00     0.260 C 
HETATM    9  C9  AIN  1536       3.472  33.116 235.701  1.00 20.00     0.126 C 
HETATM   10  O4  AIN  1536       4.389  32.833 237.834  1.00 20.00    -0.265 OA
ENDBRANCH   7   8
ENDBRANCH   6   7
BRANCH   1  11
HETATM   11  C7  AIN  1536       3.716  37.028 238.043  1.00 20.00     0.212 C 
HETATM   12  O1  AIN  1536       3.873  37.346 239.212  1.00 20.00    -0.644 OA
HETATM   13  O2  AIN  1536       4.689  36.952 237.312  1.00 20.00    -0.644 OA
ENDBRANCH   1  11
TORSDOF 3
ENDMDL
