REMARK  7 active torsions:
REMARK  status: ('A' for Active; 'I' for Inactive)
REMARK    1  A    between atoms: O1_1  and  C6_11 
REMARK    2  A    between atoms: O2_2  and  C7_12 
REMARK    3  A    between atoms: O3_3  and  C9_14 
REMARK    4  A    between atoms: N1_5  and  C2_7 
REMARK    5  A    between atoms: C1_6  and  C2_7 
REMARK    6  A    between atoms: C1_6  and  C3_8 
REMARK    7  A    between atoms: C2_7  and  C7_12 
ROOT
ATOM      1  C3  UNK     1    -104.031 -34.887 106.080  1.00  0.00    -0.053 A 
ATOM      2  C4  UNK     1    -103.310 -36.024 105.755  1.00  0.00     0.046 A 
ATOM      3  C5  UNK     1    -104.506 -34.029 105.103  1.00  0.00     0.010 A 
ATOM      4  C6  UNK     1    -103.055 -36.311 104.415  1.00  0.00     0.099 A 
ATOM      5  C8  UNK     1    -104.251 -34.315 103.762  1.00  0.00     0.040 A 
ATOM      6  C9  UNK     1    -103.525 -35.456 103.417  1.00  0.00     0.098 A 
ENDROOT
BRANCH   1   7
ATOM      7  C1  UNK     1    -104.307 -34.577 107.534  1.00  0.00     0.085 C 
BRANCH   7   8
ATOM      8  C2  UNK     1    -105.619 -35.199 108.038  1.00  0.00     0.318 C 
BRANCH   8   9
ATOM      9  N1  UNK     1    -106.067 -34.497 109.240  1.00  0.00     0.093 N 
ATOM     10  H7  UNK     1    -106.239 -33.518 109.019  1.00  0.00     0.314 HD
ATOM     11  H8  UNK     1    -105.323 -34.497 109.938  1.00  0.00     0.314 HD
ENDBRANCH   8   9
BRANCH   8  12
ATOM     12  C7  UNK     1    -105.449 -36.658 108.424  1.00  0.00     0.174 C 
ATOM     13  O4  UNK     1    -105.110 -37.053 109.532  1.00  0.00    -0.648 OA
BRANCH  12  14
ATOM     14  O2  UNK     1    -105.749 -37.500 107.403  1.00  0.00    -0.775 OA
ATOM     15  H10 UNK     1    -105.649 -38.441 107.662  1.00  0.00     0.167 HD
ENDBRANCH  12  14
ENDBRANCH   8  12
ENDBRANCH   7   8
ENDBRANCH   1   7
BRANCH   4  16
ATOM     16  O1  UNK     1    -102.347 -37.428 104.090  1.00  0.00    -0.358 OA
ATOM     17  H9  UNK     1    -102.265 -37.469 103.122  1.00  0.00     0.217 HD
ENDBRANCH   4  16
BRANCH   6  18
ATOM     18  O3  UNK     1    -103.284 -35.726 102.104  1.00  0.00    -0.358 OA
ATOM     19  H11 UNK     1    -103.684 -35.027 101.559  1.00  0.00     0.217 HD
ENDBRANCH   6  18
TORSDOF 7
