REMARK  6 active torsions:
REMARK  status: ('A' for Active; 'I' for Inactive)
REMARK       I    between atoms: N1_5  and  C6_16 
REMARK    1  A    between atoms: N2_6  and  C5_15 
REMARK       I    between atoms: N2_6  and  C11_21 
REMARK       I    between atoms: N4_8  and  C8_18 
REMARK    2  A    between atoms: C1_11  and  C8_18 
REMARK    3  A    between atoms: C5_15  and  C6_16 
REMARK    4  A    between atoms: C5_15  and  C9_19 
REMARK    5  A    between atoms: C7_17  and  C11_21 
REMARK    6  A    between atoms: C9_19  and  C14_24 
ROOT
ATOM      1  C5  UNK     1    -186.052  -0.650 209.370  1.00  0.00     0.182 C 
ENDROOT
BRANCH   1   2
ATOM      2  N2  UNK     1    -186.558  -0.115 210.602  1.00  0.00    -0.346 N 
ATOM      3  C11 UNK     1    -185.849   0.773 211.401  1.00  0.00     0.241 C 
ATOM      4  O3  UNK     1    -184.725   1.207 211.165  1.00  0.00    -0.271 OA
ATOM      5  H14 UNK     1    -187.499  -0.378 210.882  1.00  0.00     0.163 HD
BRANCH   3   6
ATOM      6  C7  UNK     1    -186.617   1.193 212.614  1.00  0.00     0.177 C 
ATOM      7  N3  UNK     1    -185.779   2.107 213.338  1.00  0.00    -0.348 N 
ATOM      8  C13 UNK     1    -186.137   3.437 213.149  1.00  0.00     0.218 C 
ATOM      9  H17 UNK     1    -184.982   1.821 213.898  1.00  0.00     0.163 HD
ATOM     10  O4  UNK     1    -185.581   4.424 213.604  1.00  0.00    -0.274 OA
ATOM     11  C12 UNK     1    -187.330   3.456 212.224  1.00  0.00     0.105 C 
ATOM     12  C10 UNK     1    -187.845   2.018 212.276  1.00  0.00     0.044 C 
ENDBRANCH   3   6
ENDBRANCH   1   2
BRANCH   1  13
ATOM     13  C6  UNK     1    -186.394   0.413 208.358  1.00  0.00     0.243 C 
ATOM     14  O1  UNK     1    -187.438   1.058 208.462  1.00  0.00    -0.271 OA
ATOM     15  N1  UNK     1    -185.473   0.583 207.336  1.00  0.00    -0.337 N 
ATOM     16  C1  UNK     1    -185.568   1.670 206.370  1.00  0.00     0.179 C 
ATOM     17  C3  UNK     1    -184.226  -0.158 207.174  1.00  0.00     0.127 C 
ATOM     18  C2  UNK     1    -184.176   1.766 205.757  1.00  0.00     0.037 C 
ATOM     19  C4  UNK     1    -183.644   0.338 205.858  1.00  0.00     0.022 C 
BRANCH  16  20
ATOM     20  C8  UNK     1    -186.597   1.272 205.355  1.00  0.00     0.238 C 
ATOM     21  O2  UNK     1    -187.184   0.194 205.410  1.00  0.00    -0.271 OA
ATOM     22  N4  UNK     1    -186.795   2.208 204.369  1.00  0.00    -0.368 N 
ATOM     23  H18 UNK     1    -187.462   2.046 203.623  1.00  0.00     0.159 HD
ATOM     24  H19 UNK     1    -186.303   3.096 204.355  1.00  0.00     0.159 HD
ENDBRANCH  16  20
ENDBRANCH   1  13
BRANCH   1  25
ATOM     25  C9  UNK     1    -186.690  -1.977 208.979  1.00  0.00     0.093 C 
BRANCH  25  26
ATOM     26  C14 UNK     1    -186.025  -3.145 209.668  1.00  0.00     0.030 A 
ATOM     27  N5  UNK     1    -185.449  -4.178 208.983  1.00  0.00    -0.353 N 
ATOM     28  C16 UNK     1    -184.946  -5.052 209.904  1.00  0.00     0.207 A 
ATOM     29  H20 UNK     1    -185.402  -4.279 207.977  1.00  0.00     0.166 HD
ATOM     30  N6  UNK     1    -185.163  -4.642 211.135  1.00  0.00    -0.254 NA
ATOM     31  C15 UNK     1    -185.836  -3.454 210.995  1.00  0.00     0.143 A 
ENDBRANCH  25  26
ENDBRANCH   1  25
TORSDOF 6
