REMARK  3 active torsions:
REMARK  status: ('A' for Active; 'I' for Inactive)
REMARK    1  A    between atoms: C3_4  and  C7_2 
REMARK    2  A    between atoms: C2_9  and  O3_10 
REMARK    3  A    between atoms: C8_11  and  O3_10 
ROOT
HETATM    1  C3  AIN  1536     -50.070 -61.482 312.649  1.00 20.00     0.074 A 
HETATM    2  C4  AIN  1536     -49.107 -60.561 313.043  1.00 20.00     0.021 A 
HETATM    3  C5  AIN  1536     -49.419 -59.210 313.109  1.00 20.00     0.001 A 
HETATM    4  C6  AIN  1536     -50.694 -58.756 312.785  1.00 20.00     0.003 A 
HETATM    5  C1  AIN  1536     -51.696 -59.640 312.384  1.00 20.00     0.038 A 
HETATM    6  C2  AIN  1536     -51.431 -61.002 312.283  1.00 20.00     0.096 A 
ENDROOT
BRANCH   6   7
HETATM    7  O3  AIN  1536     -52.413 -61.904 311.938  1.00 20.00    -0.278 OA
BRANCH   7   8
HETATM    8  C8  AIN  1536     -53.066 -62.200 310.669  1.00 20.00     0.260 C 
HETATM    9  C9  AIN  1536     -52.399 -62.042 309.338  1.00 20.00     0.126 C 
HETATM   10  O4  AIN  1536     -54.203 -62.630 310.706  1.00 20.00    -0.265 OA
ENDBRANCH   7   8
ENDBRANCH   6   7
BRANCH   1  11
HETATM   11  C7  AIN  1536     -49.709 -62.940 312.583  1.00 20.00     0.212 C 
HETATM   12  O1  AIN  1536     -48.581 -63.304 312.878  1.00 20.00    -0.644 OA
HETATM   13  O2  AIN  1536     -50.534 -63.773 312.247  1.00 20.00    -0.644 OA
ENDBRANCH   1  11
TORSDOF 3
