MODEL 1
REMARK VINA RESULT:      -6.0      0.000      0.000
REMARK  6 active torsions:
REMARK  status: ('A' for Active; 'I' for Inactive)
REMARK       I    between atoms: N1_5  and  C6_16 
REMARK    1  A    between atoms: N2_6  and  C5_15 
REMARK       I    between atoms: N2_6  and  C11_21 
REMARK       I    between atoms: N4_8  and  C8_18 
REMARK    2  A    between atoms: C1_11  and  C8_18 
REMARK    3  A    between atoms: C5_15  and  C6_16 
REMARK    4  A    between atoms: C5_15  and  C9_19 
REMARK    5  A    between atoms: C7_17  and  C11_21 
REMARK    6  A    between atoms: C9_19  and  C14_24 
ROOT
ATOM      1  C5  UNK     1       1.780  36.301 235.721  1.00  0.00     0.182 C 
ENDROOT
BRANCH   1   2
ATOM      2  N2  UNK     1       0.740  36.526 234.758  1.00  0.00    -0.346 N 
ATOM      3  C11 UNK     1       0.662  35.856 233.544  1.00  0.00     0.241 C 
ATOM      4  O3  UNK     1       1.452  35.006 233.144  1.00  0.00    -0.271 OA
ATOM      5  H14 UNK     1       0.006  37.187 234.999  1.00  0.00     0.163 HD
BRANCH   3   6
ATOM      6  C7  UNK     1      -0.534  36.261 232.741  1.00  0.00     0.177 C 
ATOM      7  N3  UNK     1      -0.837  35.161 231.869  1.00  0.00    -0.348 N 
ATOM      8  C13 UNK     1      -1.904  34.391 232.318  1.00  0.00     0.218 C 
ATOM      9  H17 UNK     1      -0.306  34.940 231.032  1.00  0.00     0.163 HD
ATOM     10  O4  UNK     1      -2.353  33.378 231.804  1.00  0.00    -0.274 OA
ATOM     11  C12 UNK     1      -2.395  35.007 233.606  1.00  0.00     0.105 C 
ATOM     12  C10 UNK     1      -1.786  36.409 233.585  1.00  0.00     0.044 C 
ENDBRANCH   3   6
ENDBRANCH   1   2
BRANCH   1  13
ATOM     13  C6  UNK     1       1.263  35.142 236.534  1.00  0.00     0.243 C 
ATOM     14  O1  UNK     1       0.156  35.203 237.069  1.00  0.00    -0.271 OA
ATOM     15  N1  UNK     1       2.116  34.054 236.632  1.00  0.00    -0.337 N 
ATOM     16  C1  UNK     1       1.710  32.794 237.242  1.00  0.00     0.179 C 
ATOM     17  C3  UNK     1       3.435  33.940 236.016  1.00  0.00     0.127 C 
ATOM     18  C2  UNK     1       2.724  31.775 236.736  1.00  0.00     0.037 C 
ATOM     19  C4  UNK     1       3.983  32.609 236.508  1.00  0.00     0.022 C 
BRANCH  16  20
ATOM     20  C8  UNK     1       1.795  32.974 238.728  1.00  0.00     0.238 C 
ATOM     21  O2  UNK     1       2.585  33.760 239.245  1.00  0.00    -0.271 OA
ATOM     22  N4  UNK     1       0.932  32.171 239.434  1.00  0.00    -0.368 N 
ATOM     23  H18 UNK     1       0.905  32.200 240.447  1.00  0.00     0.159 HD
ATOM     24  H19 UNK     1       0.282  31.538 238.978  1.00  0.00     0.159 HD
ENDBRANCH  16  20
ENDBRANCH   1  13
BRANCH   1  25
ATOM     25  C9  UNK     1       2.042  37.503 236.621  1.00  0.00     0.093 C 
BRANCH  25  26
ATOM     26  C14 UNK     1       3.190  37.255 237.571  1.00  0.00     0.030 A 
ATOM     27  N5  UNK     1       3.006  36.967 238.894  1.00  0.00    -0.353 N 
ATOM     28  C16 UNK     1       4.241  36.801 239.454  1.00  0.00     0.207 A 
ATOM     29  H20 UNK     1       2.118  36.889 239.374  1.00  0.00     0.166 HD
ATOM     30  N6  UNK     1       5.203  36.963 238.571  1.00  0.00    -0.254 NA
ATOM     31  C15 UNK     1       4.554  37.247 237.395  1.00  0.00     0.143 A 
ENDBRANCH  25  26
ENDBRANCH   1  25
TORSDOF 6
ENDMDL
MODEL 2
REMARK VINA RESULT:      -5.9      2.622      4.095
REMARK  6 active torsions:
REMARK  status: ('A' for Active; 'I' for Inactive)
REMARK       I    between atoms: N1_5  and  C6_16 
REMARK    1  A    between atoms: N2_6  and  C5_15 
REMARK       I    between atoms: N2_6  and  C11_21 
REMARK       I    between atoms: N4_8  and  C8_18 
REMARK    2  A    between atoms: C1_11  and  C8_18 
REMARK    3  A    between atoms: C5_15  and  C6_16 
REMARK    4  A    between atoms: C5_15  and  C9_19 
REMARK    5  A    between atoms: C7_17  and  C11_21 
REMARK    6  A    between atoms: C9_19  and  C14_24 
ROOT
ATOM      1  C5  UNK     1       2.250  34.210 235.727  1.00  0.00     0.182 C 
ENDROOT
BRANCH   1   2
ATOM      2  N2  UNK     1       2.036  33.409 234.555  1.00  0.00    -0.346 N 
ATOM      3  C11 UNK     1       1.559  32.105 234.594  1.00  0.00     0.241 C 
ATOM      4  O3  UNK     1       1.264  31.482 235.610  1.00  0.00    -0.271 OA
ATOM      5  H14 UNK     1       2.214  33.836 233.650  1.00  0.00     0.163 HD
BRANCH   3   6
ATOM      6  C7  UNK     1       1.405  31.509 233.231  1.00  0.00     0.177 C 
ATOM      7  N3  UNK     1       0.324  30.568 233.311  1.00  0.00    -0.348 N 
ATOM      8  C13 UNK     1      -0.865  31.062 232.786  1.00  0.00     0.218 C 
ATOM      9  H17 UNK     1       0.402  29.652 233.742  1.00  0.00     0.163 HD
ATOM     10  O4  UNK     1      -1.950  30.502 232.758  1.00  0.00    -0.274 OA
ATOM     11  C12 UNK     1      -0.592  32.461 232.288  1.00  0.00     0.105 C 
ATOM     12  C10 UNK     1       0.933  32.516 232.199  1.00  0.00     0.044 C 
ENDBRANCH   3   6
ENDBRANCH   1   2
BRANCH   1  13
ATOM     13  C6  UNK     1       1.416  35.439 235.469  1.00  0.00     0.243 C 
ATOM     14  O1  UNK     1       1.867  36.368 234.798  1.00  0.00    -0.271 OA
ATOM     15  N1  UNK     1       0.154  35.435 236.043  1.00  0.00    -0.337 N 
ATOM     16  C1  UNK     1      -0.836  36.467 235.762  1.00  0.00     0.179 C 
ATOM     17  C3  UNK     1      -0.420  34.359 236.844  1.00  0.00     0.127 C 
ATOM     18  C2  UNK     1      -2.165  35.856 236.191  1.00  0.00     0.037 C 
ATOM     19  C4  UNK     1      -1.769  34.892 237.307  1.00  0.00     0.022 C 
BRANCH  16  20
ATOM     20  C8  UNK     1      -0.479  37.662 236.594  1.00  0.00     0.238 C 
ATOM     21  O2  UNK     1       0.472  37.654 237.372  1.00  0.00    -0.271 OA
ATOM     22  N4  UNK     1      -1.319  38.734 236.415  1.00  0.00    -0.368 N 
ATOM     23  H18 UNK     1      -1.181  39.596 236.930  1.00  0.00     0.159 HD
ATOM     24  H19 UNK     1      -2.091  38.716 235.757  1.00  0.00     0.159 HD
ENDBRANCH  16  20
ENDBRANCH   1  13
BRANCH   1  25
ATOM     25  C9  UNK     1       3.708  34.596 235.939  1.00  0.00     0.093 C 
BRANCH  25  26
ATOM     26  C14 UNK     1       3.872  35.565 237.086  1.00  0.00     0.030 A 
ATOM     27  N5  UNK     1       4.342  36.837 236.918  1.00  0.00    -0.353 N 
ATOM     28  C16 UNK     1       4.362  37.433 238.147  1.00  0.00     0.207 A 
ATOM     29  H20 UNK     1       4.625  37.263 236.044  1.00  0.00     0.166 HD
ATOM     30  N6  UNK     1       3.933  36.622 239.089  1.00  0.00    -0.254 NA
ATOM     31  C15 UNK     1       3.627  35.455 238.435  1.00  0.00     0.143 A 
ENDBRANCH  25  26
ENDBRANCH   1  25
TORSDOF 6
ENDMDL
MODEL 3
REMARK VINA RESULT:      -5.8      2.260      6.409
REMARK  6 active torsions:
REMARK  status: ('A' for Active; 'I' for Inactive)
REMARK       I    between atoms: N1_5  and  C6_16 
REMARK    1  A    between atoms: N2_6  and  C5_15 
REMARK       I    between atoms: N2_6  and  C11_21 
REMARK       I    between atoms: N4_8  and  C8_18 
REMARK    2  A    between atoms: C1_11  and  C8_18 
REMARK    3  A    between atoms: C5_15  and  C6_16 
REMARK    4  A    between atoms: C5_15  and  C9_19 
REMARK    5  A    between atoms: C7_17  and  C11_21 
REMARK    6  A    between atoms: C9_19  and  C14_24 
ROOT
ATOM      1  C5  UNK     1       0.955  36.245 235.103  1.00  0.00     0.182 C 
ENDROOT
BRANCH   1   2
ATOM      2  N2  UNK     1       2.170  36.568 235.797  1.00  0.00    -0.346 N 
ATOM      3  C11 UNK     1       2.204  37.256 237.004  1.00  0.00     0.241 C 
ATOM      4  O3  UNK     1       1.225  37.668 237.620  1.00  0.00    -0.271 OA
ATOM      5  H14 UNK     1       3.045  36.244 235.396  1.00  0.00     0.163 HD
BRANCH   3   6
ATOM      6  C7  UNK     1       3.595  37.437 237.522  1.00  0.00     0.177 C 
ATOM      7  N3  UNK     1       3.519  37.338 238.953  1.00  0.00    -0.348 N 
ATOM      8  C13 UNK     1       3.936  36.101 239.433  1.00  0.00     0.218 C 
ATOM      9  H17 UNK     1       3.162  38.075 239.553  1.00  0.00     0.163 HD
ATOM     10  O4  UNK     1       3.940  35.723 240.594  1.00  0.00    -0.274 OA
ATOM     11  C12 UNK     1       4.346  35.269 238.242  1.00  0.00     0.105 C 
ATOM     12  C10 UNK     1       4.522  36.301 237.129  1.00  0.00     0.044 C 
ENDBRANCH   3   6
ENDBRANCH   1   2
BRANCH   1  13
ATOM     13  C6  UNK     1       0.574  34.901 235.668  1.00  0.00     0.243 C 
ATOM     14  O1  UNK     1       1.342  33.944 235.570  1.00  0.00    -0.271 OA
ATOM     15  N1  UNK     1      -0.673  34.839 236.272  1.00  0.00    -0.337 N 
ATOM     16  C1  UNK     1      -1.129  33.667 237.007  1.00  0.00     0.179 C 
ATOM     17  C3  UNK     1      -1.614  35.946 236.410  1.00  0.00     0.127 C 
ATOM     18  C2  UNK     1      -2.283  34.172 237.865  1.00  0.00     0.037 C 
ATOM     19  C4  UNK     1      -2.851  35.331 237.049  1.00  0.00     0.022 C 
BRANCH  16  20
ATOM     20  C8  UNK     1      -1.587  32.660 235.995  1.00  0.00     0.238 C 
ATOM     21  O2  UNK     1      -2.640  32.791 235.376  1.00  0.00    -0.271 OA
ATOM     22  N4  UNK     1      -0.736  31.591 235.852  1.00  0.00    -0.368 N 
ATOM     23  H18 UNK     1      -0.945  30.842 235.201  1.00  0.00     0.159 HD
ATOM     24  H19 UNK     1       0.134  31.514 236.370  1.00  0.00     0.159 HD
ENDBRANCH  16  20
ENDBRANCH   1  13
BRANCH   1  25
ATOM     25  C9  UNK     1       1.128  36.154 233.593  1.00  0.00     0.093 C 
BRANCH  25  26
ATOM     26  C14 UNK     1      -0.193  35.956 232.887  1.00  0.00     0.030 A 
ATOM     27  N5  UNK     1      -1.201  36.877 232.933  1.00  0.00    -0.353 N 
ATOM     28  C16 UNK     1      -2.240  36.387 232.194  1.00  0.00     0.207 A 
ATOM     29  H20 UNK     1      -1.184  37.762 233.424  1.00  0.00     0.166 HD
ATOM     30  N6  UNK     1      -1.958  35.211 231.677  1.00  0.00    -0.254 NA
ATOM     31  C15 UNK     1      -0.684  34.936 232.106  1.00  0.00     0.143 A 
ENDBRANCH  25  26
ENDBRANCH   1  25
TORSDOF 6
ENDMDL
MODEL 4
REMARK VINA RESULT:      -5.7      2.349      5.748
REMARK  6 active torsions:
REMARK  status: ('A' for Active; 'I' for Inactive)
REMARK       I    between atoms: N1_5  and  C6_16 
REMARK    1  A    between atoms: N2_6  and  C5_15 
REMARK       I    between atoms: N2_6  and  C11_21 
REMARK       I    between atoms: N4_8  and  C8_18 
REMARK    2  A    between atoms: C1_11  and  C8_18 
REMARK    3  A    between atoms: C5_15  and  C6_16 
REMARK    4  A    between atoms: C5_15  and  C9_19 
REMARK    5  A    between atoms: C7_17  and  C11_21 
REMARK    6  A    between atoms: C9_19  and  C14_24 
ROOT
ATOM      1  C5  UNK     1       2.068  34.122 236.258  1.00  0.00     0.182 C 
ENDROOT
BRANCH   1   2
ATOM      2  N2  UNK     1       2.120  32.695 236.119  1.00  0.00    -0.346 N 
ATOM      3  C11 UNK     1       1.976  31.815 237.185  1.00  0.00     0.241 C 
ATOM      4  O3  UNK     1       1.789  32.134 238.356  1.00  0.00    -0.271 OA
ATOM      5  H14 UNK     1       2.235  32.313 235.184  1.00  0.00     0.163 HD
BRANCH   3   6
ATOM      6  C7  UNK     1       2.046  30.382 236.760  1.00  0.00     0.177 C 
ATOM      7  N3  UNK     1       3.106  30.288 235.797  1.00  0.00    -0.348 N 
ATOM      8  C13 UNK     1       4.278  29.765 236.330  1.00  0.00     0.218 C 
ATOM      9  H17 UNK     1       3.027  30.606 234.836  1.00  0.00     0.163 HD
ATOM     10  O4  UNK     1       5.346  29.610 235.758  1.00  0.00    -0.274 OA
ATOM     11  C12 UNK     1       4.015  29.459 237.785  1.00  0.00     0.105 C 
ATOM     12  C10 UNK     1       2.490  29.459 237.879  1.00  0.00     0.044 C 
ENDBRANCH   3   6
ENDBRANCH   1   2
BRANCH   1  13
ATOM     13  C6  UNK     1       1.069  34.541 235.210  1.00  0.00     0.243 C 
ATOM     14  O1  UNK     1       1.424  34.704 234.042  1.00  0.00    -0.271 OA
ATOM     15  N1  UNK     1      -0.227  34.731 235.663  1.00  0.00    -0.337 N 
ATOM     16  C1  UNK     1      -1.343  34.979 234.759  1.00  0.00     0.179 C 
ATOM     17  C3  UNK     1      -0.691  34.551 237.035  1.00  0.00     0.127 C 
ATOM     18  C2  UNK     1      -2.586  34.665 235.583  1.00  0.00     0.037 C 
ATOM     19  C4  UNK     1      -2.152  34.977 237.014  1.00  0.00     0.022 C 
BRANCH  16  20
ATOM     20  C8  UNK     1      -1.285  36.425 234.368  1.00  0.00     0.238 C 
ATOM     21  O2  UNK     1      -1.454  37.328 235.184  1.00  0.00    -0.271 OA
ATOM     22  N4  UNK     1      -1.049  36.630 233.031  1.00  0.00    -0.368 N 
ATOM     23  H18 UNK     1      -0.995  37.567 232.648  1.00  0.00     0.159 HD
ATOM     24  H19 UNK     1      -0.902  35.864 232.381  1.00  0.00     0.159 HD
ENDBRANCH  16  20
ENDBRANCH   1  13
BRANCH   1  25
ATOM     25  C9  UNK     1       3.408  34.804 236.012  1.00  0.00     0.093 C 
BRANCH  25  26
ATOM     26  C14 UNK     1       3.850  35.620 237.204  1.00  0.00     0.030 A 
ATOM     27  N5  UNK     1       4.349  36.887 237.089  1.00  0.00    -0.353 N 
ATOM     28  C16 UNK     1       4.645  37.328 238.347  1.00  0.00     0.207 A 
ATOM     29  H20 UNK     1       4.477  37.406 236.229  1.00  0.00     0.166 HD
ATOM     30  N6  UNK     1       4.365  36.423 239.260  1.00  0.00    -0.254 NA
ATOM     31  C15 UNK     1       3.869  35.355 238.554  1.00  0.00     0.143 A 
ENDBRANCH  25  26
ENDBRANCH   1  25
TORSDOF 6
ENDMDL
MODEL 5
REMARK VINA RESULT:      -5.7      2.031      4.192
REMARK  6 active torsions:
REMARK  status: ('A' for Active; 'I' for Inactive)
REMARK       I    between atoms: N1_5  and  C6_16 
REMARK    1  A    between atoms: N2_6  and  C5_15 
REMARK       I    between atoms: N2_6  and  C11_21 
REMARK       I    between atoms: N4_8  and  C8_18 
REMARK    2  A    between atoms: C1_11  and  C8_18 
REMARK    3  A    between atoms: C5_15  and  C6_16 
REMARK    4  A    between atoms: C5_15  and  C9_19 
REMARK    5  A    between atoms: C7_17  and  C11_21 
REMARK    6  A    between atoms: C9_19  and  C14_24 
ROOT
ATOM      1  C5  UNK     1       1.181  33.220 235.911  1.00  0.00     0.182 C 
ENDROOT
BRANCH   1   2
ATOM      2  N2  UNK     1       0.903  33.048 234.513  1.00  0.00    -0.346 N 
ATOM      3  C11 UNK     1      -0.333  33.317 233.939  1.00  0.00     0.241 C 
ATOM      4  O3  UNK     1      -1.325  33.727 234.535  1.00  0.00    -0.271 OA
ATOM      5  H14 UNK     1       1.664  32.745 233.912  1.00  0.00     0.163 HD
BRANCH   3   6
ATOM      6  C7  UNK     1      -0.344  33.077 232.462  1.00  0.00     0.177 C 
ATOM      7  N3  UNK     1      -1.179  34.093 231.885  1.00  0.00    -0.348 N 
ATOM      8  C13 UNK     1      -0.453  35.125 231.302  1.00  0.00     0.218 C 
ATOM      9  H17 UNK     1      -2.193  34.084 231.930  1.00  0.00     0.163 HD
ATOM     10  O4  UNK     1      -0.895  36.134 230.776  1.00  0.00    -0.274 OA
ATOM     11  C12 UNK     1       1.011  34.802 231.478  1.00  0.00     0.105 C 
ATOM     12  C10 UNK     1       1.010  33.312 231.818  1.00  0.00     0.044 C 
ENDBRANCH   3   6
ENDBRANCH   1   2
BRANCH   1  13
ATOM     13  C6  UNK     1       2.234  34.298 235.930  1.00  0.00     0.243 C 
ATOM     14  O1  UNK     1       3.394  34.041 235.606  1.00  0.00    -0.271 OA
ATOM     15  N1  UNK     1       1.800  35.549 236.339  1.00  0.00    -0.337 N 
ATOM     16  C1  UNK     1       2.645  36.734 236.263  1.00  0.00     0.179 C 
ATOM     17  C3  UNK     1       0.438  35.898 236.731  1.00  0.00     0.127 C 
ATOM     18  C2  UNK     1       1.676  37.907 236.352  1.00  0.00     0.037 C 
ATOM     19  C4  UNK     1       0.519  37.350 237.180  1.00  0.00     0.022 C 
BRANCH  16  20
ATOM     20  C8  UNK     1       3.576  36.691 237.437  1.00  0.00     0.238 C 
ATOM     21  O2  UNK     1       3.383  35.946 238.395  1.00  0.00    -0.271 OA
ATOM     22  N4  UNK     1       4.632  37.565 237.340  1.00  0.00    -0.368 N 
ATOM     23  H18 UNK     1       5.324  37.630 238.078  1.00  0.00     0.159 HD
ATOM     24  H19 UNK     1       4.772  38.161 236.531  1.00  0.00     0.159 HD
ENDBRANCH  16  20
ENDBRANCH   1  13
BRANCH   1  25
ATOM     25  C9  UNK     1       1.705  31.957 236.584  1.00  0.00     0.093 C 
BRANCH  25  26
ATOM     26  C14 UNK     1       2.288  32.247 237.946  1.00  0.00     0.030 A 
ATOM     27  N5  UNK     1       3.629  32.190 238.205  1.00  0.00    -0.353 N 
ATOM     28  C16 UNK     1       3.808  32.506 239.521  1.00  0.00     0.207 A 
ATOM     29  H20 UNK     1       4.359  31.956 237.543  1.00  0.00     0.166 HD
ATOM     30  N6  UNK     1       2.666  32.765 240.120  1.00  0.00    -0.254 NA
ATOM     31  C15 UNK     1       1.714  32.604 239.144  1.00  0.00     0.143 A 
ENDBRANCH  25  26
ENDBRANCH   1  25
TORSDOF 6
ENDMDL
MODEL 6
REMARK VINA RESULT:      -5.7      2.580      4.976
REMARK  6 active torsions:
REMARK  status: ('A' for Active; 'I' for Inactive)
REMARK       I    between atoms: N1_5  and  C6_16 
REMARK    1  A    between atoms: N2_6  and  C5_15 
REMARK       I    between atoms: N2_6  and  C11_21 
REMARK       I    between atoms: N4_8  and  C8_18 
REMARK    2  A    between atoms: C1_11  and  C8_18 
REMARK    3  A    between atoms: C5_15  and  C6_16 
REMARK    4  A    between atoms: C5_15  and  C9_19 
REMARK    5  A    between atoms: C7_17  and  C11_21 
REMARK    6  A    between atoms: C9_19  and  C14_24 
ROOT
ATOM      1  C5  UNK     1      -0.029  33.683 235.283  1.00  0.00     0.182 C 
ENDROOT
BRANCH   1   2
ATOM      2  N2  UNK     1      -0.084  33.329 233.893  1.00  0.00    -0.346 N 
ATOM      3  C11 UNK     1      -0.792  34.056 232.944  1.00  0.00     0.241 C 
ATOM      4  O3  UNK     1      -1.447  35.071 233.163  1.00  0.00    -0.271 OA
ATOM      5  H14 UNK     1       0.453  32.522 233.587  1.00  0.00     0.163 HD
BRANCH   3   6
ATOM      6  C7  UNK     1      -0.662  33.484 231.568  1.00  0.00     0.177 C 
ATOM      7  N3  UNK     1      -1.121  34.494 230.656  1.00  0.00    -0.348 N 
ATOM      8  C13 UNK     1      -0.081  35.175 230.033  1.00  0.00     0.218 C 
ATOM      9  H17 UNK     1      -2.099  34.719 230.508  1.00  0.00     0.163 HD
ATOM     10  O4  UNK     1      -0.173  36.104 229.246  1.00  0.00    -0.274 OA
ATOM     11  C12 UNK     1       1.213  34.588 230.543  1.00  0.00     0.105 C 
ATOM     12  C10 UNK     1       0.782  33.258 231.160  1.00  0.00     0.044 C 
ENDBRANCH   3   6
ENDBRANCH   1   2
BRANCH   1  13
ATOM     13  C6  UNK     1       1.259  34.457 235.398  1.00  0.00     0.243 C 
ATOM     14  O1  UNK     1       2.316  33.969 234.996  1.00  0.00    -0.271 OA
ATOM     15  N1  UNK     1       1.153  35.708 235.984  1.00  0.00    -0.337 N 
ATOM     16  C1  UNK     1       2.266  36.648 236.028  1.00  0.00     0.179 C 
ATOM     17  C3  UNK     1      -0.076  36.324 236.475  1.00  0.00     0.127 C 
ATOM     18  C2  UNK     1       1.620  38.000 236.309  1.00  0.00     0.037 C 
ATOM     19  C4  UNK     1       0.368  37.636 237.105  1.00  0.00     0.022 C 
BRANCH  16  20
ATOM     20  C8  UNK     1       3.167  36.218 237.146  1.00  0.00     0.238 C 
ATOM     21  O2  UNK     1       2.751  35.577 238.108  1.00  0.00    -0.271 OA
ATOM     22  N4  UNK     1       4.471  36.623 236.995  1.00  0.00    -0.368 N 
ATOM     23  H18 UNK     1       5.171  36.397 237.693  1.00  0.00     0.159 HD
ATOM     24  H19 UNK     1       4.789  37.143 236.183  1.00  0.00     0.159 HD
ENDBRANCH  16  20
ENDBRANCH   1  13
BRANCH   1  25
ATOM     25  C9  UNK     1      -0.007  32.477 236.214  1.00  0.00     0.093 C 
BRANCH  25  26
ATOM     26  C14 UNK     1      -1.193  32.466 237.148  1.00  0.00     0.030 A 
ATOM     27  N5  UNK     1      -1.240  33.208 238.295  1.00  0.00    -0.353 N 
ATOM     28  C16 UNK     1      -2.443  32.965 238.893  1.00  0.00     0.207 A 
ATOM     29  H20 UNK     1      -0.516  33.825 238.640  1.00  0.00     0.166 HD
ATOM     30  N6  UNK     1      -3.170  32.116 238.200  1.00  0.00    -0.254 NA
ATOM     31  C15 UNK     1      -2.397  31.800 237.111  1.00  0.00     0.143 A 
ENDBRANCH  25  26
ENDBRANCH   1  25
TORSDOF 6
ENDMDL
MODEL 7
REMARK VINA RESULT:      -5.6      3.004      7.087
REMARK  6 active torsions:
REMARK  status: ('A' for Active; 'I' for Inactive)
REMARK       I    between atoms: N1_5  and  C6_16 
REMARK    1  A    between atoms: N2_6  and  C5_15 
REMARK       I    between atoms: N2_6  and  C11_21 
REMARK       I    between atoms: N4_8  and  C8_18 
REMARK    2  A    between atoms: C1_11  and  C8_18 
REMARK    3  A    between atoms: C5_15  and  C6_16 
REMARK    4  A    between atoms: C5_15  and  C9_19 
REMARK    5  A    between atoms: C7_17  and  C11_21 
REMARK    6  A    between atoms: C9_19  and  C14_24 
ROOT
ATOM      1  C5  UNK     1      -0.950  35.472 232.968  1.00  0.00     0.182 C 
ENDROOT
BRANCH   1   2
ATOM      2  N2  UNK     1      -0.008  36.276 233.693  1.00  0.00    -0.346 N 
ATOM      3  C11 UNK     1       1.137  35.764 234.290  1.00  0.00     0.241 C 
ATOM      4  O3  UNK     1       1.486  34.587 234.275  1.00  0.00    -0.271 OA
ATOM      5  H14 UNK     1      -0.176  37.277 233.741  1.00  0.00     0.163 HD
BRANCH   3   6
ATOM      6  C7  UNK     1       1.958  36.821 234.959  1.00  0.00     0.177 C 
ATOM      7  N3  UNK     1       1.035  37.742 235.561  1.00  0.00    -0.348 N 
ATOM      8  C13 UNK     1       0.897  37.553 236.931  1.00  0.00     0.218 C 
ATOM      9  H17 UNK     1       0.505  38.433 235.039  1.00  0.00     0.163 HD
ATOM     10  O4  UNK     1       0.156  38.158 237.690  1.00  0.00    -0.274 OA
ATOM     11  C12 UNK     1       1.805  36.413 237.323  1.00  0.00     0.105 C 
ATOM     12  C10 UNK     1       2.757  36.289 236.134  1.00  0.00     0.044 C 
ENDBRANCH   3   6
ENDBRANCH   1   2
BRANCH   1  13
ATOM     13  C6  UNK     1      -0.953  36.089 231.593  1.00  0.00     0.243 C 
ATOM     14  O1  UNK     1      -1.596  37.117 231.373  1.00  0.00    -0.271 OA
ATOM     15  N1  UNK     1      -0.210  35.417 230.635  1.00  0.00    -0.337 N 
ATOM     16  C1  UNK     1       0.024  35.960 229.303  1.00  0.00     0.179 C 
ATOM     17  C3  UNK     1       0.564  34.198 230.850  1.00  0.00     0.127 C 
ATOM     18  C2  UNK     1       1.217  35.176 228.769  1.00  0.00     0.037 C 
ATOM     19  C4  UNK     1       1.100  33.826 229.475  1.00  0.00     0.022 C 
BRANCH  16  20
ATOM     20  C8  UNK     1      -1.214  35.706 228.497  1.00  0.00     0.238 C 
ATOM     21  O2  UNK     1      -1.477  34.598 228.037  1.00  0.00    -0.271 OA
ATOM     22  N4  UNK     1      -1.995  36.822 228.314  1.00  0.00    -0.368 N 
ATOM     23  H18 UNK     1      -2.855  36.774 227.778  1.00  0.00     0.159 HD
ATOM     24  H19 UNK     1      -1.758  37.724 228.715  1.00  0.00     0.159 HD
ENDBRANCH  16  20
ENDBRANCH   1  13
BRANCH   1  25
ATOM     25  C9  UNK     1      -2.353  35.499 233.562  1.00  0.00     0.093 C 
BRANCH  25  26
ATOM     26  C14 UNK     1      -2.374  34.966 234.975  1.00  0.00     0.030 A 
ATOM     27  N5  UNK     1      -2.404  33.630 235.262  1.00  0.00    -0.353 N 
ATOM     28  C16 UNK     1      -2.415  33.501 236.621  1.00  0.00     0.207 A 
ATOM     29  H20 UNK     1      -2.415  32.872 234.591  1.00  0.00     0.166 HD
ATOM     30  N6  UNK     1      -2.394  34.671 237.222  1.00  0.00    -0.254 NA
ATOM     31  C15 UNK     1      -2.369  35.589 236.202  1.00  0.00     0.143 A 
ENDBRANCH  25  26
ENDBRANCH   1  25
TORSDOF 6
ENDMDL
MODEL 8
REMARK VINA RESULT:      -5.4      2.699      5.264
REMARK  6 active torsions:
REMARK  status: ('A' for Active; 'I' for Inactive)
REMARK       I    between atoms: N1_5  and  C6_16 
REMARK    1  A    between atoms: N2_6  and  C5_15 
REMARK       I    between atoms: N2_6  and  C11_21 
REMARK       I    between atoms: N4_8  and  C8_18 
REMARK    2  A    between atoms: C1_11  and  C8_18 
REMARK    3  A    between atoms: C5_15  and  C6_16 
REMARK    4  A    between atoms: C5_15  and  C9_19 
REMARK    5  A    between atoms: C7_17  and  C11_21 
REMARK    6  A    between atoms: C9_19  and  C14_24 
ROOT
ATOM      1  C5  UNK     1      -0.906  35.652 233.148  1.00  0.00     0.182 C 
ENDROOT
BRANCH   1   2
ATOM      2  N2  UNK     1      -0.925  36.252 231.844  1.00  0.00    -0.346 N 
ATOM      3  C11 UNK     1      -2.090  36.638 231.194  1.00  0.00     0.241 C 
ATOM      4  O3  UNK     1      -3.229  36.521 231.638  1.00  0.00    -0.271 OA
ATOM      5  H14 UNK     1      -0.032  36.431 231.392  1.00  0.00     0.163 HD
BRANCH   3   6
ATOM      6  C7  UNK     1      -1.825  37.259 229.860  1.00  0.00     0.177 C 
ATOM      7  N3  UNK     1      -0.851  36.431 229.205  1.00  0.00    -0.348 N 
ATOM      8  C13 UNK     1      -1.409  35.589 228.250  1.00  0.00     0.218 C 
ATOM      9  H17 UNK     1       0.137  36.427 229.439  1.00  0.00     0.163 HD
ATOM     10  O4  UNK     1      -0.830  34.755 227.572  1.00  0.00    -0.274 OA
ATOM     11  C12 UNK     1      -2.894  35.856 228.226  1.00  0.00     0.105 C 
ATOM     12  C10 UNK     1      -3.027  37.203 228.936  1.00  0.00     0.044 C 
ENDBRANCH   3   6
ENDBRANCH   1   2
BRANCH   1  13
ATOM     13  C6  UNK     1       0.518  35.845 233.603  1.00  0.00     0.243 C 
ATOM     14  O1  UNK     1       1.454  35.478 232.892  1.00  0.00    -0.271 OA
ATOM     15  N1  UNK     1       0.672  36.436 234.848  1.00  0.00    -0.337 N 
ATOM     16  C1  UNK     1       1.972  36.840 235.367  1.00  0.00     0.179 C 
ATOM     17  C3  UNK     1      -0.407  36.884 235.723  1.00  0.00     0.127 C 
ATOM     18  C2  UNK     1       1.654  37.825 236.485  1.00  0.00     0.037 C 
ATOM     19  C4  UNK     1       0.290  37.360 236.990  1.00  0.00     0.022 C 
BRANCH  16  20
ATOM     20  C8  UNK     1       2.645  35.605 235.887  1.00  0.00     0.238 C 
ATOM     21  O2  UNK     1       2.011  34.601 236.202  1.00  0.00    -0.271 OA
ATOM     22  N4  UNK     1       4.010  35.719 235.992  1.00  0.00    -0.368 N 
ATOM     23  H18 UNK     1       4.572  34.950 236.339  1.00  0.00     0.159 HD
ATOM     24  H19 UNK     1       4.509  36.558 235.714  1.00  0.00     0.159 HD
ENDBRANCH  16  20
ENDBRANCH   1  13
BRANCH   1  25
ATOM     25  C9  UNK     1      -1.262  34.171 233.138  1.00  0.00     0.093 C 
BRANCH  25  26
ATOM     26  C14 UNK     1      -1.553  33.654 234.527  1.00  0.00     0.030 A 
ATOM     27  N5  UNK     1      -0.601  33.065 235.312  1.00  0.00    -0.353 N 
ATOM     28  C16 UNK     1      -1.197  32.720 236.492  1.00  0.00     0.207 A 
ATOM     29  H20 UNK     1       0.369  32.912 235.067  1.00  0.00     0.166 HD
ATOM     30  N6  UNK     1      -2.470  33.052 236.511  1.00  0.00    -0.254 NA
ATOM     31  C15 UNK     1      -2.698  33.634 235.289  1.00  0.00     0.143 A 
ENDBRANCH  25  26
ENDBRANCH   1  25
TORSDOF 6
ENDMDL
MODEL 9
REMARK VINA RESULT:      -5.4      2.855      7.098
REMARK  6 active torsions:
REMARK  status: ('A' for Active; 'I' for Inactive)
REMARK       I    between atoms: N1_5  and  C6_16 
REMARK    1  A    between atoms: N2_6  and  C5_15 
REMARK       I    between atoms: N2_6  and  C11_21 
REMARK       I    between atoms: N4_8  and  C8_18 
REMARK    2  A    between atoms: C1_11  and  C8_18 
REMARK    3  A    between atoms: C5_15  and  C6_16 
REMARK    4  A    between atoms: C5_15  and  C9_19 
REMARK    5  A    between atoms: C7_17  and  C11_21 
REMARK    6  A    between atoms: C9_19  and  C14_24 
ROOT
ATOM      1  C5  UNK     1       0.398  34.782 233.052  1.00  0.00     0.182 C 
ENDROOT
BRANCH   1   2
ATOM      2  N2  UNK     1       0.874  35.924 233.781  1.00  0.00    -0.346 N 
ATOM      3  C11 UNK     1       1.838  35.849 234.778  1.00  0.00     0.241 C 
ATOM      4  O3  UNK     1       2.397  34.824 235.158  1.00  0.00    -0.271 OA
ATOM      5  H14 UNK     1       0.506  36.836 233.526  1.00  0.00     0.163 HD
BRANCH   3   6
ATOM      6  C7  UNK     1       2.170  37.188 235.357  1.00  0.00     0.177 C 
ATOM      7  N3  UNK     1       0.923  37.870 235.563  1.00  0.00    -0.348 N 
ATOM      8  C13 UNK     1       0.507  37.850 236.890  1.00  0.00     0.218 C 
ATOM      9  H17 UNK     1       0.377  38.288 234.817  1.00  0.00     0.163 HD
ATOM     10  O4  UNK     1      -0.526  38.312 237.348  1.00  0.00    -0.274 OA
ATOM     11  C12 UNK     1       1.554  37.102 237.680  1.00  0.00     0.105 C 
ATOM     12  C10 UNK     1       2.766  37.095 236.749  1.00  0.00     0.044 C 
ENDBRANCH   3   6
ENDBRANCH   1   2
BRANCH   1  13
ATOM     13  C6  UNK     1      -0.437  35.389 231.954  1.00  0.00     0.243 C 
ATOM     14  O1  UNK     1      -1.534  35.886 232.209  1.00  0.00    -0.271 OA
ATOM     15  N1  UNK     1       0.113  35.329 230.683  1.00  0.00    -0.337 N 
ATOM     16  C1  UNK     1      -0.484  36.006 229.539  1.00  0.00     0.179 C 
ATOM     17  C3  UNK     1       1.407  34.750 230.336  1.00  0.00     0.127 C 
ATOM     18  C2  UNK     1       0.633  36.077 228.505  1.00  0.00     0.037 C 
ATOM     19  C4  UNK     1       1.487  34.850 228.819  1.00  0.00     0.022 C 
BRANCH  16  20
ATOM     20  C8  UNK     1      -1.626  35.158 229.068  1.00  0.00     0.238 C 
ATOM     21  O2  UNK     1      -1.449  34.107 228.457  1.00  0.00    -0.271 OA
ATOM     22  N4  UNK     1      -2.863  35.676 229.366  1.00  0.00    -0.368 N 
ATOM     23  H18 UNK     1      -3.711  35.194 229.091  1.00  0.00     0.159 HD
ATOM     24  H19 UNK     1      -2.979  36.543 229.883  1.00  0.00     0.159 HD
ENDBRANCH  16  20
ENDBRANCH   1  13
BRANCH   1  25
ATOM     25  C9  UNK     1      -0.446  33.835 233.895  1.00  0.00     0.093 C 
BRANCH  25  26
ATOM     26  C14 UNK     1       0.137  32.441 233.927  1.00  0.00     0.030 A 
ATOM     27  N5  UNK     1       1.095  32.060 234.823  1.00  0.00    -0.353 N 
ATOM     28  C16 UNK     1       1.391  30.750 234.576  1.00  0.00     0.207 A 
ATOM     29  H20 UNK     1       1.511  32.640 235.541  1.00  0.00     0.166 HD
ATOM     30  N6  UNK     1       0.681  30.269 233.578  1.00  0.00    -0.254 NA
ATOM     31  C15 UNK     1      -0.103  31.319 233.169  1.00  0.00     0.143 A 
ENDBRANCH  25  26
ENDBRANCH   1  25
TORSDOF 6
ENDMDL
