REMARK  6 active torsions:
REMARK  status: ('A' for Active; 'I' for Inactive)
REMARK    1  A    between atoms: C1_1  and  C7_6 
REMARK    2  A    between atoms: C3_3  and  O1_8 
REMARK    3  A    between atoms: C4_4  and  O2_10 
REMARK    4  A    between atoms: C7_6  and  O3_12 
REMARK    5  A    between atoms: C7_6  and  C8_14 
REMARK    6  A    between atoms: C8_14  and  N1_15 
ROOT
HETATM    1  C1  ALE  1572     -99.162 -28.922  73.816  1.00 20.00    -0.025 A 
HETATM    2  C2  ALE  1572     -99.037 -30.268  74.154  1.00 20.00     0.049 A 
HETATM    3  C3  ALE  1572     -98.363 -31.140  73.302  1.00 20.00     0.099 A 
HETATM    4  C4  ALE  1572     -97.807 -30.663  72.109  1.00 20.00     0.098 A 
HETATM    5  C5  ALE  1572     -97.931 -29.319  71.774  1.00 20.00     0.040 A 
HETATM    6  C6  ALE  1572     -98.607 -28.454  72.626  1.00 20.00     0.012 A 
ENDROOT
BRANCH   1   7
HETATM    7  C7  ALE  1572     -99.902 -27.940  74.741  1.00 20.00     0.176 C 
BRANCH   7   8
HETATM    8  O3  ALE  1572     -99.180 -27.814  75.972  1.00 20.00    -0.389 OA
ATOM      9  H3  ALE  1572     -99.637 -27.208  76.543  1.00  0.00     0.210 HD
ENDBRANCH   7   8
BRANCH   7  10
HETATM   10  C8  ALE  1572    -101.351 -28.402  74.989  1.00 20.00     0.268 C 
BRANCH  10  11
HETATM   11  N1  ALE  1572    -101.774 -28.050  76.351  1.00 20.00    -0.076 N 
HETATM   12  C9  ALE  1572    -102.028 -29.272  77.134  1.00 20.00     0.267 C 
ATOM     13  H12 ALE  1572    -101.104 -27.434  76.812  1.00  0.00     0.276 HD
ATOM     14  H11 ALE  1572    -102.578 -27.423  76.351  1.00  0.00     0.276 HD
ENDBRANCH  10  11
ENDBRANCH   7  10
ENDBRANCH   1   7
BRANCH   3  15
HETATM   15  O1  ALE  1572     -98.255 -32.452  73.653  1.00 20.00    -0.358 OA
ATOM     16  H1  ALE  1572     -97.795 -33.047  73.072  1.00  0.00     0.217 HD
ENDBRANCH   3  15
BRANCH   4  17
HETATM   17  O2  ALE  1572     -97.144 -31.493  71.255  1.00 20.00    -0.358 OA
ATOM     18  H2  ALE  1572     -96.767 -31.169  70.445  1.00  0.00     0.217 HD
ENDBRANCH   4  17
TORSDOF 6
