REMARK  9 active torsions:
REMARK  status: ('A' for Active; 'I' for Inactive)
REMARK    1  A    between atoms: C10_14  and  O6_16 
REMARK    2  A    between atoms: C16_23  and  O7_24 
REMARK    3  A    between atoms: C27_36  and  O9_37 
REMARK    4  A    between atoms: C28_38  and  O10_39 
REMARK    5  A    between atoms: C34_47  and  C35_48 
REMARK    6  A    between atoms: C35_48  and  C36_49 
REMARK    7  A    between atoms: C36_49  and  C37_50 
REMARK    8  A    between atoms: C39_52  and  O12_53 
REMARK    9  A    between atoms: C40_54  and  O13_55 
ROOT
HETATM    1  C1  RAP  6544     -97.082 -32.898  74.175  1.00 20.00     0.282 C 
HETATM    2  O1  RAP  6544     -97.989 -32.038  73.498  1.00 20.00    -0.314 OA
HETATM    3  O2  RAP  6544     -97.366 -33.253  75.317  1.00 20.00    -0.263 OA
HETATM    4  C2  RAP  6544     -95.804 -33.414  73.515  1.00 20.00     0.187 C 
HETATM    5  C3  RAP  6544     -94.623 -33.336  74.471  1.00 20.00     0.035 C 
HETATM    6  C4  RAP  6544     -94.088 -31.924  74.666  1.00 20.00     0.004 C 
HETATM    7  C5  RAP  6544     -93.752 -31.352  73.301  1.00 20.00     0.020 C 
HETATM    8  C6  RAP  6544     -94.959 -31.349  72.413  1.00 20.00     0.127 C 
HETATM    9  N7  RAP  6544     -95.417 -32.740  72.271  1.00 20.00    -0.331 N 
HETATM   10  C8  RAP  6544     -95.651 -33.318  71.083  1.00 20.00     0.296 C 
HETATM   11  O3  RAP  6544     -96.125 -34.462  71.070  1.00 20.00    -0.264 OA
HETATM   12  C9  RAP  6544     -95.308 -32.715  69.854  1.00 20.00     0.278 C 
HETATM   13  O4  RAP  6544     -94.166 -32.870  69.404  1.00 20.00    -0.281 OA
HETATM   14  C10 RAP  6544     -96.308 -31.869  69.043  1.00 20.00     0.238 C 
HETATM   15  O5  RAP  6544     -96.377 -30.630  69.712  1.00 20.00    -0.343 OA
HETATM   16  C11 RAP  6544     -97.756 -32.503  68.972  1.00 20.00     0.053 C 
HETATM   17  C12 RAP  6544     -98.787 -31.486  68.432  1.00 20.00     0.013 C 
HETATM   18  C13 RAP  6544     -98.665 -30.160  69.169  1.00 20.00     0.033 C 
HETATM   19  C14 RAP  6544     -97.233 -29.644  69.260  1.00 20.00     0.128 C 
HETATM   20  C15 RAP  6544     -97.149 -28.546  70.306  1.00 20.00     0.068 C 
HETATM   21  C16 RAP  6544     -97.826 -27.224  69.965  1.00 20.00     0.151 C 
HETATM   22  C17 RAP  6544     -97.702 -26.232  71.102  1.00 20.00    -0.055 C 
HETATM   23  C18 RAP  6544     -98.803 -25.864  71.744  1.00 20.00     0.005 C 
HETATM   24  C19 RAP  6544     -98.840 -24.936  72.882  1.00 20.00     0.000 C 
HETATM   25  C20 RAP  6544    -100.012 -24.605  73.406  1.00 20.00    -0.000 C 
HETATM   26  C21 RAP  6544    -100.101 -23.759  74.611  1.00 20.00    -0.004 C 
HETATM   27  C22 RAP  6544    -101.236 -23.589  75.261  1.00 20.00    -0.022 C 
HETATM   28  C23 RAP  6544    -101.365 -22.824  76.560  1.00 20.00     0.005 C 
HETATM   29  C24 RAP  6544    -101.992 -23.776  77.564  1.00 20.00     0.020 C 
HETATM   30  C25 RAP  6544    -101.326 -25.127  77.748  1.00 20.00     0.055 C 
HETATM   31  C26 RAP  6544    -102.289 -26.123  78.380  1.00 20.00     0.162 C 
HETATM   32  O8  RAP  6544    -102.415 -26.208  79.599  1.00 20.00    -0.295 OA
HETATM   33  C27 RAP  6544    -103.077 -27.013  77.425  1.00 20.00     0.223 C 
HETATM   34  C28 RAP  6544    -102.291 -28.283  76.965  1.00 20.00     0.183 C 
HETATM   35  C29 RAP  6544    -101.306 -28.014  75.812  1.00 20.00    -0.056 C 
HETATM   36  C30 RAP  6544     -99.982 -28.047  75.964  1.00 20.00    -0.010 C 
HETATM   37  C31 RAP  6544     -98.869 -27.848  74.924  1.00 20.00     0.074 C 
HETATM   38  C32 RAP  6544     -98.278 -29.204  74.539  1.00 20.00     0.136 C 
HETATM   39  O11 RAP  6544     -97.190 -29.594  74.974  1.00 20.00    -0.297 OA
HETATM   40  C33 RAP  6544     -99.146 -30.069  73.631  1.00 20.00     0.112 C 
HETATM   41  C34 RAP  6544     -99.148 -31.524  74.052  1.00 20.00     0.142 C 
HETATM   42  C43 RAP  6544     -97.855 -33.849  68.197  1.00 20.00     0.016 C 
HETATM   43  C44 RAP  6544     -96.281 -25.715  71.385  1.00 20.00     0.046 C 
HETATM   44  C45 RAP  6544    -102.230 -21.585  76.380  1.00 20.00     0.014 C 
HETATM   45  C46 RAP  6544    -100.039 -25.016  78.571  1.00 20.00     0.018 C 
HETATM   46  C47 RAP  6544    -101.970 -27.692  74.486  1.00 20.00     0.046 C 
HETATM   47  C48 RAP  6544     -97.774 -26.958  75.532  1.00 20.00     0.022 C 
ENDROOT
BRANCH  41  48
HETATM   48  C35 RAP  6544    -100.292 -32.431  73.554  1.00 20.00     0.012 C 
HETATM   49  C49 RAP  6544    -100.507 -32.310  72.072  1.00 20.00     0.012 C 
BRANCH  48  50
HETATM   50  C36 RAP  6544    -101.596 -32.179  74.307  1.00 20.00     0.011 C 
BRANCH  50  51
HETATM   51  C37 RAP  6544    -101.618 -32.503  75.802  1.00 20.00    -0.012 C 
HETATM   52  C42 RAP  6544    -101.239 -33.938  76.168  1.00 20.00     0.007 C 
HETATM   53  C41 RAP  6544    -101.234 -34.174  77.672  1.00 20.00     0.035 C 
HETATM   54  C40 RAP  6544    -102.587 -33.774  78.296  1.00 20.00     0.147 C 
HETATM   55  C39 RAP  6544    -103.035 -32.320  77.918  1.00 20.00     0.150 C 
HETATM   56  C38 RAP  6544    -102.980 -32.134  76.400  1.00 20.00     0.039 C 
BRANCH  54  57
HETATM   57  O13 RAP  6544    -102.495 -33.880  79.715  1.00 20.00    -0.393 OA
ATOM     58  H13 RAP  6544    -102.224 -34.761  79.944  1.00  0.00     0.210 HD
ENDBRANCH  54  57
BRANCH  55  59
HETATM   59  O12 RAP  6544    -104.371 -32.106  78.298  1.00 20.00    -0.388 OA
HETATM   60  C52 RAP  6544    -104.679 -30.861  78.824  1.00 20.00     0.202 C 
ENDBRANCH  55  59
ENDBRANCH  50  51
ENDBRANCH  48  50
ENDBRANCH  41  48
BRANCH  34  61
HETATM   61  O10 RAP  6544    -101.580 -28.787  78.104  1.00 20.00    -0.388 OA
ATOM     62  H10 RAP  6544    -101.102 -29.559  77.824  1.00  0.00     0.210 HD
ENDBRANCH  34  61
BRANCH  33  63
HETATM   63  O9  RAP  6544    -104.228 -27.470  78.084  1.00 20.00    -0.380 OA
HETATM   64  C51 RAP  6544    -105.339 -26.650  77.983  1.00 20.00     0.202 C 
ENDBRANCH  33  63
BRANCH  14  65
HETATM   65  O6  RAP  6544     -95.805 -31.710  67.713  1.00 20.00    -0.359 OA
ATOM     66  H6  RAP  6544     -96.422 -31.188  67.213  1.00  0.00     0.213 HD
ENDBRANCH  14  65
BRANCH  21  67
HETATM   67  O7  RAP  6544     -97.206 -26.708  68.830  1.00 20.00    -0.386 OA
HETATM   68  C50 RAP  6544     -97.958 -25.822  68.064  1.00 20.00     0.202 C 
ENDBRANCH  21  67
TORSDOF 9
