MODEL 1
REMARK VINA RESULT:      -5.7      0.000      0.000
REMARK  7 active torsions:
REMARK  status: ('A' for Active; 'I' for Inactive)
REMARK    1  A    between atoms: O1_1  and  C6_11 
REMARK    2  A    between atoms: O2_2  and  C7_12 
REMARK    3  A    between atoms: O3_3  and  C9_14 
REMARK    4  A    between atoms: N1_5  and  C2_7 
REMARK    5  A    between atoms: C1_6  and  C2_7 
REMARK    6  A    between atoms: C1_6  and  C3_8 
REMARK    7  A    between atoms: C2_7  and  C7_12 
ROOT
ATOM      1  C3  UNK     1       1.042  40.995 226.872  1.00  0.00    -0.053 A 
ATOM      2  C4  UNK     1       0.926  42.351 227.130  1.00  0.00     0.046 A 
ATOM      3  C5  UNK     1       2.169  40.283 227.245  1.00  0.00     0.010 A 
ATOM      4  C6  UNK     1       1.967  43.015 227.777  1.00  0.00     0.099 A 
ATOM      5  C8  UNK     1       3.212  40.946 227.892  1.00  0.00     0.040 A 
ATOM      6  C9  UNK     1       3.112  42.313 228.158  1.00  0.00     0.098 A 
ENDROOT
BRANCH   1   7
ATOM      7  C1  UNK     1      -0.088  40.276 226.170  1.00  0.00     0.085 C 
BRANCH   7   8
ATOM      8  C2  UNK     1      -1.456  40.933 226.416  1.00  0.00     0.318 C 
BRANCH   8   9
ATOM      9  N1  UNK     1      -2.120  40.279 227.543  1.00  0.00     0.093 N 
ATOM     10  H7  UNK     1      -2.460  39.364 227.254  1.00  0.00     0.314 HD
ATOM     11  H8  UNK     1      -2.949  40.810 227.811  1.00  0.00     0.314 HD
ENDBRANCH   8   9
BRANCH   8  12
ATOM     12  C7  UNK     1      -2.382  40.788 225.221  1.00  0.00     0.174 C 
ATOM     13  O4  UNK     1      -3.514  40.323 225.266  1.00  0.00    -0.648 OA
BRANCH  12  14
ATOM     14  O2  UNK     1      -1.829  41.267 224.079  1.00  0.00    -0.775 OA
ATOM     15  H10 UNK     1      -0.849  41.218 224.097  1.00  0.00     0.167 HD
ENDBRANCH  12  14
ENDBRANCH   8  12
ENDBRANCH   7   8
ENDBRANCH   1   7
BRANCH   4  16
ATOM     16  O1  UNK     1       1.858  44.348 228.032  1.00  0.00    -0.358 OA
ATOM     17  H9  UNK     1       1.980  44.489 228.987  1.00  0.00     0.217 HD
ENDBRANCH   4  16
BRANCH   6  18
ATOM     18  O3  UNK     1       4.135  42.949 228.792  1.00  0.00    -0.358 OA
ATOM     19  H11 UNK     1       4.480  43.650 228.212  1.00  0.00     0.217 HD
ENDBRANCH   6  18
TORSDOF 7
ENDMDL
MODEL 2
REMARK VINA RESULT:      -5.5      2.247      2.622
REMARK  7 active torsions:
REMARK  status: ('A' for Active; 'I' for Inactive)
REMARK    1  A    between atoms: O1_1  and  C6_11 
REMARK    2  A    between atoms: O2_2  and  C7_12 
REMARK    3  A    between atoms: O3_3  and  C9_14 
REMARK    4  A    between atoms: N1_5  and  C2_7 
REMARK    5  A    between atoms: C1_6  and  C2_7 
REMARK    6  A    between atoms: C1_6  and  C3_8 
REMARK    7  A    between atoms: C2_7  and  C7_12 
ROOT
ATOM      1  C3  UNK     1      -0.106  40.743 227.427  1.00  0.00    -0.053 A 
ATOM      2  C4  UNK     1      -0.132  41.467 228.607  1.00  0.00     0.046 A 
ATOM      3  C5  UNK     1       0.999  40.760 226.593  1.00  0.00     0.010 A 
ATOM      4  C6  UNK     1       0.978  42.233 228.963  1.00  0.00     0.099 A 
ATOM      5  C8  UNK     1       2.109  41.526 226.948  1.00  0.00     0.040 A 
ATOM      6  C9  UNK     1       2.099  42.263 228.133  1.00  0.00     0.098 A 
ENDROOT
BRANCH   1   7
ATOM      7  C1  UNK     1      -1.310  39.913 227.042  1.00  0.00     0.085 C 
BRANCH   7   8
ATOM      8  C2  UNK     1      -1.884  39.112 228.222  1.00  0.00     0.318 C 
BRANCH   8   9
ATOM      9  N1  UNK     1      -1.057  37.930 228.462  1.00  0.00     0.093 N 
ATOM     10  H7  UNK     1      -1.620  37.090 228.342  1.00  0.00     0.314 HD
ATOM     11  H8  UNK     1      -0.746  37.918 229.434  1.00  0.00     0.314 HD
ENDBRANCH   8   9
BRANCH   8  12
ATOM     12  C7  UNK     1      -3.290  38.610 227.942  1.00  0.00     0.174 C 
ATOM     13  O4  UNK     1      -3.746  38.394 226.827  1.00  0.00    -0.648 OA
BRANCH  12  14
ATOM     14  O2  UNK     1      -3.995  38.391 229.080  1.00  0.00    -0.775 OA
ATOM     15  H10 UNK     1      -4.954  38.286 228.903  1.00  0.00     0.167 HD
ENDBRANCH  12  14
ENDBRANCH   8  12
ENDBRANCH   7   8
ENDBRANCH   1   7
BRANCH   4  16
ATOM     16  O1  UNK     1       0.958  42.946 230.123  1.00  0.00    -0.358 OA
ATOM     17  H9  UNK     1       1.316  43.833 229.945  1.00  0.00     0.217 HD
ENDBRANCH   4  16
BRANCH   6  18
ATOM     18  O3  UNK     1       3.190  43.005 228.471  1.00  0.00    -0.358 OA
ATOM     19  H11 UNK     1       3.166  43.844 227.980  1.00  0.00     0.217 HD
ENDBRANCH   6  18
TORSDOF 7
ENDMDL
MODEL 3
REMARK VINA RESULT:      -5.5     11.427     13.149
REMARK  7 active torsions:
REMARK  status: ('A' for Active; 'I' for Inactive)
REMARK    1  A    between atoms: O1_1  and  C6_11 
REMARK    2  A    between atoms: O2_2  and  C7_12 
REMARK    3  A    between atoms: O3_3  and  C9_14 
REMARK    4  A    between atoms: N1_5  and  C2_7 
REMARK    5  A    between atoms: C1_6  and  C2_7 
REMARK    6  A    between atoms: C1_6  and  C3_8 
REMARK    7  A    between atoms: C2_7  and  C7_12 
ROOT
ATOM      1  C3  UNK     1       1.910  35.936 237.176  1.00  0.00    -0.053 A 
ATOM      2  C4  UNK     1       1.374  37.197 236.971  1.00  0.00     0.046 A 
ATOM      3  C5  UNK     1       1.126  34.798 237.105  1.00  0.00     0.010 A 
ATOM      4  C6  UNK     1       0.014  37.323 236.689  1.00  0.00     0.099 A 
ATOM      5  C8  UNK     1      -0.235  34.923 236.823  1.00  0.00     0.040 A 
ATOM      6  C9  UNK     1      -0.791  36.186 236.615  1.00  0.00     0.098 A 
ENDROOT
BRANCH   1   7
ATOM      7  C1  UNK     1       3.384  35.801 237.482  1.00  0.00     0.085 C 
BRANCH   7   8
ATOM      8  C2  UNK     1       3.929  36.966 238.323  1.00  0.00     0.318 C 
BRANCH   8   9
ATOM      9  N1  UNK     1       4.909  37.720 237.544  1.00  0.00     0.093 N 
ATOM     10  H7  UNK     1       5.479  38.287 238.169  1.00  0.00     0.314 HD
ATOM     11  H8  UNK     1       4.430  38.380 236.931  1.00  0.00     0.314 HD
ENDBRANCH   8   9
BRANCH   8  12
ATOM     12  C7  UNK     1       4.644  36.484 239.573  1.00  0.00     0.174 C 
ATOM     13  O4  UNK     1       5.837  36.218 239.637  1.00  0.00    -0.648 OA
BRANCH  12  14
ATOM     14  O2  UNK     1       3.815  36.408 240.645  1.00  0.00    -0.775 OA
ATOM     15  H10 UNK     1       2.975  36.893 240.495  1.00  0.00     0.167 HD
ENDBRANCH  12  14
ENDBRANCH   8  12
ENDBRANCH   7   8
ENDBRANCH   1   7
BRANCH   4  16
ATOM     16  O1  UNK     1      -0.518  38.560 236.486  1.00  0.00    -0.358 OA
ATOM     17  H9  UNK     1      -0.006  39.004 235.789  1.00  0.00     0.217 HD
ENDBRANCH   4  16
BRANCH   6  18
ATOM     18  O3  UNK     1      -2.120  36.296 236.339  1.00  0.00    -0.358 OA
ATOM     19  H11 UNK     1      -2.313  35.813 235.517  1.00  0.00     0.217 HD
ENDBRANCH   6  18
TORSDOF 7
ENDMDL
MODEL 4
REMARK VINA RESULT:      -5.4      2.732      5.612
REMARK  7 active torsions:
REMARK  status: ('A' for Active; 'I' for Inactive)
REMARK    1  A    between atoms: O1_1  and  C6_11 
REMARK    2  A    between atoms: O2_2  and  C7_12 
REMARK    3  A    between atoms: O3_3  and  C9_14 
REMARK    4  A    between atoms: N1_5  and  C2_7 
REMARK    5  A    between atoms: C1_6  and  C2_7 
REMARK    6  A    between atoms: C1_6  and  C3_8 
REMARK    7  A    between atoms: C2_7  and  C7_12 
ROOT
ATOM      1  C3  UNK     1      -0.350  40.142 227.243  1.00  0.00    -0.053 A 
ATOM      2  C4  UNK     1      -0.351  39.352 228.381  1.00  0.00     0.046 A 
ATOM      3  C5  UNK     1      -1.516  40.401 226.543  1.00  0.00     0.010 A 
ATOM      4  C6  UNK     1      -1.551  38.805 228.831  1.00  0.00     0.099 A 
ATOM      5  C8  UNK     1      -2.717  39.854 226.993  1.00  0.00     0.040 A 
ATOM      6  C9  UNK     1      -2.736  39.055 228.137  1.00  0.00     0.098 A 
ENDROOT
BRANCH   1   7
ATOM      7  C1  UNK     1       0.952  40.735 226.755  1.00  0.00     0.085 C 
BRANCH   7   8
ATOM      8  C2  UNK     1       1.014  42.261 226.926  1.00  0.00     0.318 C 
BRANCH   8   9
ATOM      9  N1  UNK     1       1.649  42.863 225.755  1.00  0.00     0.093 N 
ATOM     10  H7  UNK     1       1.525  42.253 224.948  1.00  0.00     0.314 HD
ATOM     11  H8  UNK     1       2.657  42.925 225.902  1.00  0.00     0.314 HD
ENDBRANCH   8   9
BRANCH   8  12
ATOM     12  C7  UNK     1       1.846  42.668 228.130  1.00  0.00     0.174 C 
ATOM     13  O4  UNK     1       3.062  42.808 228.124  1.00  0.00    -0.648 OA
BRANCH  12  14
ATOM     14  O2  UNK     1       1.085  42.898 229.229  1.00  0.00    -0.775 OA
ATOM     15  H10 UNK     1       1.589  42.764 230.060  1.00  0.00     0.167 HD
ENDBRANCH  12  14
ENDBRANCH   8  12
ENDBRANCH   7   8
ENDBRANCH   1   7
BRANCH   4  16
ATOM     16  O1  UNK     1      -1.557  38.028 229.950  1.00  0.00    -0.358 OA
ATOM     17  H9  UNK     1      -0.719  37.536 229.987  1.00  0.00     0.217 HD
ENDBRANCH   4  16
BRANCH   6  18
ATOM     18  O3  UNK     1      -3.915  38.527 228.569  1.00  0.00    -0.358 OA
ATOM     19  H11 UNK     1      -3.733  37.716 229.073  1.00  0.00     0.217 HD
ENDBRANCH   6  18
TORSDOF 7
ENDMDL
MODEL 5
REMARK VINA RESULT:      -5.3     10.780     11.682
REMARK  7 active torsions:
REMARK  status: ('A' for Active; 'I' for Inactive)
REMARK    1  A    between atoms: O1_1  and  C6_11 
REMARK    2  A    between atoms: O2_2  and  C7_12 
REMARK    3  A    between atoms: O3_3  and  C9_14 
REMARK    4  A    between atoms: N1_5  and  C2_7 
REMARK    5  A    between atoms: C1_6  and  C2_7 
REMARK    6  A    between atoms: C1_6  and  C3_8 
REMARK    7  A    between atoms: C2_7  and  C7_12 
ROOT
ATOM      1  C3  UNK     1       2.271  36.890 237.036  1.00  0.00    -0.053 A 
ATOM      2  C4  UNK     1       3.499  37.430 237.383  1.00  0.00     0.046 A 
ATOM      3  C5  UNK     1       1.886  35.633 237.469  1.00  0.00     0.010 A 
ATOM      4  C6  UNK     1       4.367  36.691 238.184  1.00  0.00     0.099 A 
ATOM      5  C8  UNK     1       2.755  34.893 238.270  1.00  0.00     0.040 A 
ATOM      6  C9  UNK     1       3.996  35.421 238.628  1.00  0.00     0.098 A 
ENDROOT
BRANCH   1   7
ATOM      7  C1  UNK     1       1.330  37.693 236.167  1.00  0.00     0.085 C 
BRANCH   7   8
ATOM      8  C2  UNK     1       0.038  36.933 235.826  1.00  0.00     0.318 C 
BRANCH   8   9
ATOM      9  N1  UNK     1      -0.125  36.865 234.374  1.00  0.00     0.093 N 
ATOM     10  H7  UNK     1      -0.067  37.802 233.980  1.00  0.00     0.314 HD
ATOM     11  H8  UNK     1      -1.059  36.525 234.147  1.00  0.00     0.314 HD
ENDBRANCH   8   9
BRANCH   8  12
ATOM     12  C7  UNK     1      -1.197  37.630 236.370  1.00  0.00     0.174 C 
ATOM     13  O4  UNK     1      -2.081  37.083 237.015  1.00  0.00    -0.648 OA
BRANCH  12  14
ATOM     14  O2  UNK     1      -1.204  38.958 236.090  1.00  0.00    -0.775 OA
ATOM     15  H10 UNK     1      -1.535  39.141 235.185  1.00  0.00     0.167 HD
ENDBRANCH  12  14
ENDBRANCH   8  12
ENDBRANCH   7   8
ENDBRANCH   1   7
BRANCH   4  16
ATOM     16  O1  UNK     1       5.575  37.217 238.528  1.00  0.00    -0.358 OA
ATOM     17  H9  UNK     1       5.469  38.175 238.652  1.00  0.00     0.217 HD
ENDBRANCH   4  16
BRANCH   6  18
ATOM     18  O3  UNK     1       4.836  34.689 239.413  1.00  0.00    -0.358 OA
ATOM     19  H11 UNK     1       4.595  34.826 240.345  1.00  0.00     0.217 HD
ENDBRANCH   6  18
TORSDOF 7
ENDMDL
MODEL 6
REMARK VINA RESULT:      -5.3     11.044     12.005
REMARK  7 active torsions:
REMARK  status: ('A' for Active; 'I' for Inactive)
REMARK    1  A    between atoms: O1_1  and  C6_11 
REMARK    2  A    between atoms: O2_2  and  C7_12 
REMARK    3  A    between atoms: O3_3  and  C9_14 
REMARK    4  A    between atoms: N1_5  and  C2_7 
REMARK    5  A    between atoms: C1_6  and  C2_7 
REMARK    6  A    between atoms: C1_6  and  C3_8 
REMARK    7  A    between atoms: C2_7  and  C7_12 
ROOT
ATOM      1  C3  UNK     1       2.684  37.052 237.220  1.00  0.00    -0.053 A 
ATOM      2  C4  UNK     1       2.274  35.885 237.844  1.00  0.00     0.046 A 
ATOM      3  C5  UNK     1       3.905  37.637 237.510  1.00  0.00     0.010 A 
ATOM      4  C6  UNK     1       3.108  35.286 238.786  1.00  0.00     0.099 A 
ATOM      5  C8  UNK     1       4.740  37.038 238.454  1.00  0.00     0.040 A 
ATOM      6  C9  UNK     1       4.342  35.863 239.092  1.00  0.00     0.098 A 
ENDROOT
BRANCH   1   7
ATOM      7  C1  UNK     1       1.778  37.701 236.198  1.00  0.00     0.085 C 
BRANCH   7   8
ATOM      8  C2  UNK     1       0.615  36.793 235.769  1.00  0.00     0.318 C 
BRANCH   8   9
ATOM      9  N1  UNK     1       0.539  36.745 234.309  1.00  0.00     0.093 N 
ATOM     10  H7  UNK     1       1.459  36.930 233.914  1.00  0.00     0.314 HD
ATOM     11  H8  UNK     1      -0.064  37.495 233.970  1.00  0.00     0.314 HD
ENDBRANCH   8   9
BRANCH   8  12
ATOM     12  C7  UNK     1      -0.726  37.311 236.258  1.00  0.00     0.174 C 
ATOM     13  O4  UNK     1      -1.663  36.605 236.609  1.00  0.00    -0.648 OA
BRANCH  12  14
ATOM     14  O2  UNK     1      -0.771  38.667 236.299  1.00  0.00    -0.775 OA
ATOM     15  H10 UNK     1       0.084  39.070 236.038  1.00  0.00     0.167 HD
ENDBRANCH  12  14
ENDBRANCH   8  12
ENDBRANCH   7   8
ENDBRANCH   1   7
BRANCH   4  16
ATOM     16  O1  UNK     1       2.711  34.138 239.402  1.00  0.00    -0.358 OA
ATOM     17  H9  UNK     1       2.538  33.468 238.720  1.00  0.00     0.217 HD
ENDBRANCH   4  16
BRANCH   6  18
ATOM     18  O3  UNK     1       5.167  35.286 240.010  1.00  0.00    -0.358 OA
ATOM     19  H11 UNK     1       5.678  35.982 240.457  1.00  0.00     0.217 HD
ENDBRANCH   6  18
TORSDOF 7
ENDMDL
MODEL 7
REMARK VINA RESULT:      -5.2      2.003      5.725
REMARK  7 active torsions:
REMARK  status: ('A' for Active; 'I' for Inactive)
REMARK    1  A    between atoms: O1_1  and  C6_11 
REMARK    2  A    between atoms: O2_2  and  C7_12 
REMARK    3  A    between atoms: O3_3  and  C9_14 
REMARK    4  A    between atoms: N1_5  and  C2_7 
REMARK    5  A    between atoms: C1_6  and  C2_7 
REMARK    6  A    between atoms: C1_6  and  C3_8 
REMARK    7  A    between atoms: C2_7  and  C7_12 
ROOT
ATOM      1  C3  UNK     1       0.621  40.642 227.498  1.00  0.00    -0.053 A 
ATOM      2  C4  UNK     1       0.166  40.989 226.237  1.00  0.00     0.046 A 
ATOM      3  C5  UNK     1      -0.223  40.079 228.441  1.00  0.00     0.010 A 
ATOM      4  C6  UNK     1      -1.171  40.769 225.908  1.00  0.00     0.099 A 
ATOM      5  C8  UNK     1      -1.561  39.860 228.113  1.00  0.00     0.040 A 
ATOM      6  C9  UNK     1      -2.036  40.204 226.847  1.00  0.00     0.098 A 
ENDROOT
BRANCH   1   7
ATOM      7  C1  UNK     1       2.071  40.881 227.853  1.00  0.00     0.085 C 
BRANCH   7   8
ATOM      8  C2  UNK     1       2.257  42.018 228.870  1.00  0.00     0.318 C 
BRANCH   8   9
ATOM      9  N1  UNK     1       1.967  43.301 228.232  1.00  0.00     0.093 N 
ATOM     10  H7  UNK     1       2.549  44.027 228.646  1.00  0.00     0.314 HD
ATOM     11  H8  UNK     1       1.004  43.574 228.426  1.00  0.00     0.314 HD
ENDBRANCH   8   9
BRANCH   8  12
ATOM     12  C7  UNK     1       3.685  42.099 229.382  1.00  0.00     0.174 C 
ATOM     13  O4  UNK     1       4.685  41.978 228.687  1.00  0.00    -0.648 OA
BRANCH  12  14
ATOM     14  O2  UNK     1       3.741  42.358 230.713  1.00  0.00    -0.775 OA
ATOM     15  H10 UNK     1       3.430  41.597 231.248  1.00  0.00     0.167 HD
ENDBRANCH  12  14
ENDBRANCH   8  12
ENDBRANCH   7   8
ENDBRANCH   1   7
BRANCH   4  16
ATOM     16  O1  UNK     1      -1.623  41.108 224.669  1.00  0.00    -0.358 OA
ATOM     17  H9  UNK     1      -1.428  42.048 224.518  1.00  0.00     0.217 HD
ENDBRANCH   4  16
BRANCH   6  18
ATOM     18  O3  UNK     1      -3.343  39.983 226.538  1.00  0.00    -0.358 OA
ATOM     19  H11 UNK     1      -3.644  40.672 225.922  1.00  0.00     0.217 HD
ENDBRANCH   6  18
TORSDOF 7
ENDMDL
MODEL 8
REMARK VINA RESULT:      -5.1     11.340     13.250
REMARK  7 active torsions:
REMARK  status: ('A' for Active; 'I' for Inactive)
REMARK    1  A    between atoms: O1_1  and  C6_11 
REMARK    2  A    between atoms: O2_2  and  C7_12 
REMARK    3  A    between atoms: O3_3  and  C9_14 
REMARK    4  A    between atoms: N1_5  and  C2_7 
REMARK    5  A    between atoms: C1_6  and  C2_7 
REMARK    6  A    between atoms: C1_6  and  C3_8 
REMARK    7  A    between atoms: C2_7  and  C7_12 
ROOT
ATOM      1  C3  UNK     1       3.509  36.673 237.131  1.00  0.00    -0.053 A 
ATOM      2  C4  UNK     1       2.482  37.602 237.148  1.00  0.00     0.046 A 
ATOM      3  C5  UNK     1       3.583  35.695 236.154  1.00  0.00     0.010 A 
ATOM      4  C6  UNK     1       1.499  37.551 236.161  1.00  0.00     0.099 A 
ATOM      5  C8  UNK     1       2.601  35.643 235.166  1.00  0.00     0.040 A 
ATOM      6  C9  UNK     1       1.557  36.571 235.169  1.00  0.00     0.098 A 
ENDROOT
BRANCH   1   7
ATOM      7  C1  UNK     1       4.575  36.729 238.202  1.00  0.00     0.085 C 
BRANCH   7   8
ATOM      8  C2  UNK     1       4.097  36.162 239.549  1.00  0.00     0.318 C 
BRANCH   8   9
ATOM      9  N1  UNK     1       3.649  37.254 240.412  1.00  0.00     0.093 N 
ATOM     10  H7  UNK     1       4.138  38.111 240.160  1.00  0.00     0.314 HD
ATOM     11  H8  UNK     1       3.910  37.060 241.379  1.00  0.00     0.314 HD
ENDBRANCH   8   9
BRANCH   8  12
ATOM     12  C7  UNK     1       5.210  35.447 240.295  1.00  0.00     0.174 C 
ATOM     13  O4  UNK     1       6.377  35.816 240.333  1.00  0.00    -0.648 OA
BRANCH  12  14
ATOM     14  O2  UNK     1       4.764  34.350 240.958  1.00  0.00    -0.775 OA
ATOM     15  H10 UNK     1       5.412  34.036 241.624  1.00  0.00     0.167 HD
ENDBRANCH  12  14
ENDBRANCH   8  12
ENDBRANCH   7   8
ENDBRANCH   1   7
BRANCH   4  16
ATOM     16  O1  UNK     1       0.487  38.462 236.172  1.00  0.00    -0.358 OA
ATOM     17  H9  UNK     1       0.013  38.406 235.325  1.00  0.00     0.217 HD
ENDBRANCH   4  16
BRANCH   6  18
ATOM     18  O3  UNK     1       0.604  36.511 234.197  1.00  0.00    -0.358 OA
ATOM     19  H11 UNK     1       0.255  35.605 234.153  1.00  0.00     0.217 HD
ENDBRANCH   6  18
TORSDOF 7
ENDMDL
MODEL 9
REMARK VINA RESULT:      -4.9     11.562     13.032
REMARK  7 active torsions:
REMARK  status: ('A' for Active; 'I' for Inactive)
REMARK    1  A    between atoms: O1_1  and  C6_11 
REMARK    2  A    between atoms: O2_2  and  C7_12 
REMARK    3  A    between atoms: O3_3  and  C9_14 
REMARK    4  A    between atoms: N1_5  and  C2_7 
REMARK    5  A    between atoms: C1_6  and  C2_7 
REMARK    6  A    between atoms: C1_6  and  C3_8 
REMARK    7  A    between atoms: C2_7  and  C7_12 
ROOT
ATOM      1  C3  UNK     1       0.970  35.583 237.170  1.00  0.00    -0.053 A 
ATOM      2  C4  UNK     1      -0.349  35.398 236.791  1.00  0.00     0.046 A 
ATOM      3  C5  UNK     1       1.538  36.844 237.218  1.00  0.00     0.010 A 
ATOM      4  C6  UNK     1      -1.122  36.505 236.447  1.00  0.00     0.099 A 
ATOM      5  C8  UNK     1       0.765  37.953 236.874  1.00  0.00     0.040 A 
ATOM      6  C9  UNK     1      -0.565  37.785 236.488  1.00  0.00     0.098 A 
ENDROOT
BRANCH   1   7
ATOM      7  C1  UNK     1       1.808  34.380 237.543  1.00  0.00     0.085 C 
BRANCH   7   8
ATOM      8  C2  UNK     1       3.305  34.708 237.654  1.00  0.00     0.318 C 
BRANCH   8   9
ATOM      9  N1  UNK     1       4.069  33.827 236.770  1.00  0.00     0.093 N 
ATOM     10  H7  UNK     1       4.480  34.374 236.016  1.00  0.00     0.314 HD
ATOM     11  H8  UNK     1       3.441  33.161 236.319  1.00  0.00     0.314 HD
ENDBRANCH   8   9
BRANCH   8  12
ATOM     12  C7  UNK     1       3.837  34.482 239.058  1.00  0.00     0.174 C 
ATOM     13  O4  UNK     1       4.532  33.534 239.399  1.00  0.00    -0.648 OA
BRANCH  12  14
ATOM     14  O2  UNK     1       3.484  35.478 239.910  1.00  0.00    -0.775 OA
ATOM     15  H10 UNK     1       4.246  36.050 240.142  1.00  0.00     0.167 HD
ENDBRANCH  12  14
ENDBRANCH   8  12
ENDBRANCH   7   8
ENDBRANCH   1   7
BRANCH   4  16
ATOM     16  O1  UNK     1      -2.420  36.329 236.074  1.00  0.00    -0.358 OA
ATOM     17  H9  UNK     1      -2.666  37.049 235.468  1.00  0.00     0.217 HD
ENDBRANCH   4  16
BRANCH   6  18
ATOM     18  O3  UNK     1      -1.311  38.875 236.157  1.00  0.00    -0.358 OA
ATOM     19  H11 UNK     1      -1.275  39.516 236.887  1.00  0.00     0.217 HD
ENDBRANCH   6  18
TORSDOF 7
ENDMDL
