REMARK  2 active torsions:
REMARK  status: ('A' for Active; 'I' for Inactive)
REMARK    1  A    between atoms: C1_3  and  C2_4 
REMARK    2  A    between atoms: C1_3  and  C4_6 
ROOT
ATOM      1  C2  UNK     1      -0.607  -0.503  -0.407  1.00  0.00    -0.042 A 
ATOM      2  C3  UNK     1      -1.393   0.649  -0.399  1.00  0.00    -0.049 A 
ATOM      3  C6  UNK     1      -2.634   0.641   0.238  1.00  0.00    -0.056 A 
ATOM      4  C7  UNK     1      -1.062  -1.663   0.220  1.00  0.00     0.008 A 
ATOM      5  C8  UNK     1      -0.905   1.892  -1.071  1.00  0.00     0.049 C 
ATOM      6  C9  UNK     1      -3.089  -0.519   0.866  1.00  0.00     0.007 A 
ATOM      7  C10 UNK     1      -2.303  -1.671   0.857  1.00  0.00     0.001 A 
ATOM      8  C12 UNK     1      -3.495   1.862   0.263  1.00  0.00     0.049 C 
ENDROOT
BRANCH   1   9
ATOM      9  C1  UNK     1       0.725  -0.522  -1.083  1.00  0.00     0.066 C 
ATOM     10  C5  UNK     1       1.111  -1.851  -1.780  1.00  0.00     0.021 C 
BRANCH   9  11
ATOM     11  C4  UNK     1       1.871  -0.063  -0.167  1.00  0.00     0.036 A 
ATOM     12  N1  UNK     1       2.581   1.022  -0.469  1.00  0.00    -0.352 N 
ATOM     13  C13 UNK     1       3.499   1.138   0.538  1.00  0.00     0.207 A 
ATOM     14  H11 UNK     1       2.481   1.639  -1.266  1.00  0.00     0.166 HD
ATOM     15  N2  UNK     1       3.373   0.177   1.426  1.00  0.00    -0.254 NA
ATOM     16  C11 UNK     1       2.329  -0.588   0.968  1.00  0.00     0.143 A 
ENDBRANCH   9  11
ENDBRANCH   1   9
TORSDOF 2
