MODEL 1
REMARK VINA RESULT:      -6.4      0.000      0.000
REMARK  8 active torsions:
REMARK  status: ('A' for Active; 'I' for Inactive)
REMARK    1  A    between atoms: O1_1  and  C7_15 
REMARK    2  A    between atoms: O1_1  and  C14_22 
REMARK    3  A    between atoms: O2_2  and  C11_19 
REMARK    4  A    between atoms: N2_8  and  C8_16 
REMARK    5  A    between atoms: C1_9  and  C4_12 
REMARK    6  A    between atoms: C2_10  and  C7_15 
REMARK    7  A    between atoms: C3_11  and  C11_19 
REMARK    8  A    between atoms: C13_21  and  C14_22 
ROOT
ATOM      1  N1  UNK     1       1.083  37.792 237.010  1.00  0.00    -0.362 N 
ATOM      2  C1  UNK     1       0.731  35.094 236.216  1.00  0.00     0.103 C 
ATOM      3  C2  UNK     1       2.078  35.672 236.663  1.00  0.00     0.052 C 
ATOM      4  C3  UNK     1      -0.431  36.077 236.399  1.00  0.00     0.052 C 
ATOM      5  C5  UNK     1       2.200  36.971 237.020  1.00  0.00     0.018 C 
ATOM      6  C6  UNK     1      -0.210  37.363 236.754  1.00  0.00     0.018 C 
ATOM      7  C10 UNK     1       3.480  37.645 237.436  1.00  0.00     0.069 C 
ATOM      8  C12 UNK     1      -1.270  38.420 236.911  1.00  0.00     0.069 C 
ATOM      9  H2  UNK     1       1.211  38.761 237.275  1.00  0.00     0.165 HD
ENDROOT
BRANCH   2  10
ATOM     10  C4  UNK     1       0.810  34.659 234.781  1.00  0.00    -0.012 A 
ATOM     11  C8  UNK     1       0.578  33.336 234.417  1.00  0.00     0.110 A 
ATOM     12  C15 UNK     1       0.660  32.962 233.077  1.00  0.00     0.037 A 
ATOM     13  C17 UNK     1       0.976  33.913 232.104  1.00  0.00     0.002 A 
ATOM     14  C16 UNK     1       1.208  35.237 232.474  1.00  0.00     0.001 A 
ATOM     15  C9  UNK     1       1.125  35.611 233.816  1.00  0.00     0.011 A 
BRANCH  11  16
ATOM     16  N2  UNK     1       0.257  32.350 235.391  1.00  0.00    -0.115 N 
ATOM     17  O5  UNK     1       1.187  31.692 235.915  1.00  0.00    -0.532 OA
ATOM     18  O6  UNK     1      -0.946  32.168 235.695  1.00  0.00    -0.532 OA
ENDBRANCH  11  16
ENDBRANCH   2  10
BRANCH   3  19
ATOM     19  C7  UNK     1       3.205  34.728 236.743  1.00  0.00     0.292 C 
ATOM     20  O3  UNK     1       4.187  34.796 236.028  1.00  0.00    -0.259 OA
BRANCH  19  21
ATOM     21  O1  UNK     1       2.937  33.825 237.716  1.00  0.00    -0.317 OA
BRANCH  21  22
ATOM     22  C14 UNK     1       3.066  34.319 239.055  1.00  0.00     0.183 C 
BRANCH  22  23
ATOM     23  C13 UNK     1       4.546  34.481 239.412  1.00  0.00     0.002 C 
ATOM     24  C18 UNK     1       5.070  33.222 240.098  1.00  0.00     0.011 C 
ATOM     25  C19 UNK     1       4.775  35.706 240.300  1.00  0.00     0.011 C 
ENDBRANCH  22  23
ENDBRANCH  21  22
ENDBRANCH  19  21
ENDBRANCH   3  19
BRANCH   4  26
ATOM     26  C11 UNK     1      -1.787  35.536 236.220  1.00  0.00     0.291 C 
ATOM     27  O4  UNK     1      -2.379  34.916 237.085  1.00  0.00    -0.260 OA
BRANCH  26  28
ATOM     28  O2  UNK     1      -2.214  35.852 234.973  1.00  0.00    -0.323 OA
ATOM     29  C20 UNK     1      -2.906  34.804 234.285  1.00  0.00     0.213 C 
ENDBRANCH  26  28
ENDBRANCH   4  26
TORSDOF 8
ENDMDL
MODEL 2
REMARK VINA RESULT:      -6.1      1.656      2.312
REMARK  8 active torsions:
REMARK  status: ('A' for Active; 'I' for Inactive)
REMARK    1  A    between atoms: O1_1  and  C7_15 
REMARK    2  A    between atoms: O1_1  and  C14_22 
REMARK    3  A    between atoms: O2_2  and  C11_19 
REMARK    4  A    between atoms: N2_8  and  C8_16 
REMARK    5  A    between atoms: C1_9  and  C4_12 
REMARK    6  A    between atoms: C2_10  and  C7_15 
REMARK    7  A    between atoms: C3_11  and  C11_19 
REMARK    8  A    between atoms: C13_21  and  C14_22 
ROOT
ATOM      1  N1  UNK     1       1.105  37.542 237.065  1.00  0.00    -0.362 N 
ATOM      2  C1  UNK     1       0.385  34.801 237.036  1.00  0.00     0.103 C 
ATOM      3  C2  UNK     1       1.758  35.308 237.494  1.00  0.00     0.052 C 
ATOM      4  C3  UNK     1      -0.606  35.936 236.754  1.00  0.00     0.052 C 
ATOM      5  C5  UNK     1       2.060  36.626 237.477  1.00  0.00     0.018 C 
ATOM      6  C6  UNK     1      -0.208  37.228 236.753  1.00  0.00     0.018 C 
ATOM      7  C10 UNK     1       3.385  37.223 237.869  1.00  0.00     0.069 C 
ATOM      8  C12 UNK     1      -1.085  38.411 236.441  1.00  0.00     0.069 C 
ATOM      9  H2  UNK     1       1.367  38.521 237.057  1.00  0.00     0.165 HD
ENDROOT
BRANCH   2  10
ATOM     10  C4  UNK     1       0.538  33.941 235.815  1.00  0.00    -0.012 A 
ATOM     11  C8  UNK     1       0.096  32.622 235.805  1.00  0.00     0.110 A 
ATOM     12  C15 UNK     1       0.252  31.847 234.657  1.00  0.00     0.037 A 
ATOM     13  C17 UNK     1       0.852  32.394 233.522  1.00  0.00     0.002 A 
ATOM     14  C16 UNK     1       1.294  33.717 233.536  1.00  0.00     0.001 A 
ATOM     15  C9  UNK     1       1.137  34.492 234.686  1.00  0.00     0.011 A 
BRANCH  11  16
ATOM     16  N2  UNK     1      -0.516  32.042 236.952  1.00  0.00    -0.115 N 
ATOM     17  O5  UNK     1      -1.768  32.031 237.028  1.00  0.00    -0.532 OA
ATOM     18  O6  UNK     1       0.214  31.560 237.850  1.00  0.00    -0.532 OA
ENDBRANCH  11  16
ENDBRANCH   2  10
BRANCH   3  19
ATOM     19  C7  UNK     1       2.695  34.296 238.009  1.00  0.00     0.292 C 
ATOM     20  O3  UNK     1       2.658  33.869 239.148  1.00  0.00    -0.259 OA
BRANCH  19  21
ATOM     21  O1  UNK     1       3.550  33.960 237.014  1.00  0.00    -0.317 OA
BRANCH  21  22
ATOM     22  C14 UNK     1       4.217  32.703 237.184  1.00  0.00     0.183 C 
BRANCH  22  23
ATOM     23  C13 UNK     1       3.481  31.612 236.400  1.00  0.00     0.002 C 
ATOM     24  C18 UNK     1       3.418  30.322 237.214  1.00  0.00     0.011 C 
ATOM     25  C19 UNK     1       4.145  31.355 235.046  1.00  0.00     0.011 C 
ENDBRANCH  22  23
ENDBRANCH  21  22
ENDBRANCH  19  21
ENDBRANCH   3  19
BRANCH   4  26
ATOM     26  C11 UNK     1      -2.008  35.547 236.538  1.00  0.00     0.291 C 
ATOM     27  O4  UNK     1      -2.762  35.235 237.441  1.00  0.00    -0.260 OA
BRANCH  26  28
ATOM     28  O2  UNK     1      -2.270  35.608 235.209  1.00  0.00    -0.323 OA
ATOM     29  C20 UNK     1      -3.008  34.497 234.685  1.00  0.00     0.213 C 
ENDBRANCH  26  28
ENDBRANCH   4  26
TORSDOF 8
ENDMDL
MODEL 3
REMARK VINA RESULT:      -5.9      1.916      5.277
REMARK  8 active torsions:
REMARK  status: ('A' for Active; 'I' for Inactive)
REMARK    1  A    between atoms: O1_1  and  C7_15 
REMARK    2  A    between atoms: O1_1  and  C14_22 
REMARK    3  A    between atoms: O2_2  and  C11_19 
REMARK    4  A    between atoms: N2_8  and  C8_16 
REMARK    5  A    between atoms: C1_9  and  C4_12 
REMARK    6  A    between atoms: C2_10  and  C7_15 
REMARK    7  A    between atoms: C3_11  and  C11_19 
REMARK    8  A    between atoms: C13_21  and  C14_22 
ROOT
ATOM      1  N1  UNK     1       0.203  33.026 238.296  1.00  0.00    -0.362 N 
ATOM      2  C1  UNK     1       0.508  34.390 235.830  1.00  0.00     0.103 C 
ATOM      3  C2  UNK     1      -0.855  34.029 236.431  1.00  0.00     0.052 C 
ATOM      4  C3  UNK     1       1.676  34.085 236.775  1.00  0.00     0.052 C 
ATOM      5  C5  UNK     1      -0.950  33.364 237.605  1.00  0.00     0.018 C 
ATOM      6  C6  UNK     1       1.484  33.407 237.929  1.00  0.00     0.018 C 
ATOM      7  C10 UNK     1      -2.233  32.930 238.261  1.00  0.00     0.069 C 
ATOM      8  C12 UNK     1       2.565  33.012 238.899  1.00  0.00     0.069 C 
ATOM      9  H2  UNK     1       0.096  32.521 239.168  1.00  0.00     0.165 HD
ENDROOT
BRANCH   2  10
ATOM     10  C4  UNK     1       0.702  33.669 234.529  1.00  0.00    -0.012 A 
ATOM     11  C8  UNK     1       0.836  34.367 233.332  1.00  0.00     0.110 A 
ATOM     12  C15 UNK     1       1.014  33.669 232.139  1.00  0.00     0.037 A 
ATOM     13  C17 UNK     1       1.055  32.274 232.145  1.00  0.00     0.002 A 
ATOM     14  C16 UNK     1       0.920  31.578 233.346  1.00  0.00     0.001 A 
ATOM     15  C9  UNK     1       0.742  32.277 234.541  1.00  0.00     0.011 A 
BRANCH  11  16
ATOM     16  N2  UNK     1       0.795  35.789 233.301  1.00  0.00    -0.115 N 
ATOM     17  O5  UNK     1       1.830  36.431 233.598  1.00  0.00    -0.532 OA
ATOM     18  O6  UNK     1      -0.275  36.357 232.978  1.00  0.00    -0.532 OA
ENDBRANCH  11  16
ENDBRANCH   2  10
BRANCH   3  19
ATOM     19  C7  UNK     1      -2.042  34.499 235.698  1.00  0.00     0.292 C 
ATOM     20  O3  UNK     1      -2.906  33.753 235.275  1.00  0.00    -0.259 OA
BRANCH  19  21
ATOM     21  O1  UNK     1      -1.977  35.848 235.600  1.00  0.00    -0.317 OA
BRANCH  21  22
ATOM     22  C14 UNK     1      -2.037  36.552 236.846  1.00  0.00     0.183 C 
BRANCH  22  23
ATOM     23  C13 UNK     1      -1.409  37.940 236.692  1.00  0.00     0.002 C 
ATOM     24  C18 UNK     1       0.080  37.891 237.024  1.00  0.00     0.011 C 
ATOM     25  C19 UNK     1      -2.117  38.973 237.571  1.00  0.00     0.011 C 
ENDBRANCH  22  23
ENDBRANCH  21  22
ENDBRANCH  19  21
ENDBRANCH   3  19
BRANCH   4  26
ATOM     26  C11 UNK     1       2.994  34.610 236.385  1.00  0.00     0.291 C 
ATOM     27  O4  UNK     1       3.870  33.921 235.894  1.00  0.00    -0.260 OA
BRANCH  26  28
ATOM     28  O2  UNK     1       3.027  35.936 236.664  1.00  0.00    -0.323 OA
ATOM     29  C20 UNK     1       4.144  36.361 237.454  1.00  0.00     0.213 C 
ENDBRANCH  26  28
ENDBRANCH   4  26
TORSDOF 8
ENDMDL
MODEL 4
REMARK VINA RESULT:      -5.6      2.001      6.103
REMARK  8 active torsions:
REMARK  status: ('A' for Active; 'I' for Inactive)
REMARK    1  A    between atoms: O1_1  and  C7_15 
REMARK    2  A    between atoms: O1_1  and  C14_22 
REMARK    3  A    between atoms: O2_2  and  C11_19 
REMARK    4  A    between atoms: N2_8  and  C8_16 
REMARK    5  A    between atoms: C1_9  and  C4_12 
REMARK    6  A    between atoms: C2_10  and  C7_15 
REMARK    7  A    between atoms: C3_11  and  C11_19 
REMARK    8  A    between atoms: C13_21  and  C14_22 
ROOT
ATOM      1  N1  UNK     1      -0.309  32.136 238.010  1.00  0.00    -0.362 N 
ATOM      2  C1  UNK     1       0.469  34.703 237.093  1.00  0.00     0.103 C 
ATOM      3  C2  UNK     1      -0.988  34.228 237.134  1.00  0.00     0.052 C 
ATOM      4  C3  UNK     1       1.438  33.712 237.749  1.00  0.00     0.052 C 
ATOM      5  C5  UNK     1      -1.309  32.988 237.567  1.00  0.00     0.018 C 
ATOM      6  C6  UNK     1       1.024  32.488 238.147  1.00  0.00     0.018 C 
ATOM      7  C10 UNK     1      -2.699  32.412 237.612  1.00  0.00     0.069 C 
ATOM      8  C12 UNK     1       1.901  31.425 238.753  1.00  0.00     0.069 C 
ATOM      9  H2  UNK     1      -0.584  31.212 238.320  1.00  0.00     0.165 HD
ENDROOT
BRANCH   2  10
ATOM     10  C4  UNK     1       0.885  34.960 235.674  1.00  0.00    -0.012 A 
ATOM     11  C8  UNK     1       1.342  36.211 235.273  1.00  0.00     0.110 A 
ATOM     12  C15 UNK     1       1.720  36.419 233.948  1.00  0.00     0.037 A 
ATOM     13  C17 UNK     1       1.637  35.375 233.026  1.00  0.00     0.002 A 
ATOM     14  C16 UNK     1       1.178  34.123 233.431  1.00  0.00     0.001 A 
ATOM     15  C9  UNK     1       0.800  33.914 234.758  1.00  0.00     0.011 A 
BRANCH  11  16
ATOM     16  N2  UNK     1       1.433  37.291 236.195  1.00  0.00    -0.115 N 
ATOM     17  O5  UNK     1       0.409  37.978 236.425  1.00  0.00    -0.532 OA
ATOM     18  O6  UNK     1       2.533  37.524 236.750  1.00  0.00    -0.532 OA
ENDBRANCH  11  16
ENDBRANCH   2  10
BRANCH   3  19
ATOM     19  C7  UNK     1      -2.011  35.211 236.741  1.00  0.00     0.292 C 
ATOM     20  O3  UNK     1      -2.434  36.072 237.490  1.00  0.00    -0.259 OA
BRANCH  19  21
ATOM     21  O1  UNK     1      -2.363  34.971 235.455  1.00  0.00    -0.317 OA
BRANCH  21  22
ATOM     22  C14 UNK     1      -2.186  36.076 234.561  1.00  0.00     0.183 C 
BRANCH  22  23
ATOM     23  C13 UNK     1      -2.624  35.679 233.148  1.00  0.00     0.002 C 
ATOM     24  C18 UNK     1      -2.478  34.173 232.949  1.00  0.00     0.011 C 
ATOM     25  C19 UNK     1      -1.827  36.437 232.084  1.00  0.00     0.011 C 
ENDBRANCH  22  23
ENDBRANCH  21  22
ENDBRANCH  19  21
ENDBRANCH   3  19
BRANCH   4  26
ATOM     26  C11 UNK     1       2.815  34.183 237.966  1.00  0.00     0.291 C 
ATOM     27  O4  UNK     1       3.698  34.071 237.137  1.00  0.00    -0.260 OA
BRANCH  26  28
ATOM     28  O2  UNK     1       2.889  34.735 239.202  1.00  0.00    -0.323 OA
ATOM     29  C20 UNK     1       4.081  35.486 239.461  1.00  0.00     0.213 C 
ENDBRANCH  26  28
ENDBRANCH   4  26
TORSDOF 8
ENDMDL
MODEL 5
REMARK VINA RESULT:      -5.6      2.570      5.158
REMARK  8 active torsions:
REMARK  status: ('A' for Active; 'I' for Inactive)
REMARK    1  A    between atoms: O1_1  and  C7_15 
REMARK    2  A    between atoms: O1_1  and  C14_22 
REMARK    3  A    between atoms: O2_2  and  C11_19 
REMARK    4  A    between atoms: N2_8  and  C8_16 
REMARK    5  A    between atoms: C1_9  and  C4_12 
REMARK    6  A    between atoms: C2_10  and  C7_15 
REMARK    7  A    between atoms: C3_11  and  C11_19 
REMARK    8  A    between atoms: C13_21  and  C14_22 
ROOT
ATOM      1  N1  UNK     1       2.540  32.823 235.460  1.00  0.00    -0.362 N 
ATOM      2  C1  UNK     1       0.306  34.264 234.477  1.00  0.00     0.103 C 
ATOM      3  C2  UNK     1       0.337  32.736 234.597  1.00  0.00     0.052 C 
ATOM      4  C3  UNK     1       1.538  34.936 235.093  1.00  0.00     0.052 C 
ATOM      5  C5  UNK     1       1.433  32.091 235.060  1.00  0.00     0.018 C 
ATOM      6  C6  UNK     1       2.591  34.206 235.525  1.00  0.00     0.018 C 
ATOM      7  C10 UNK     1       1.580  30.598 235.182  1.00  0.00     0.069 C 
ATOM      8  C12 UNK     1       3.866  34.767 236.096  1.00  0.00     0.069 C 
ATOM      9  H2  UNK     1       3.346  32.308 235.794  1.00  0.00     0.165 HD
ENDROOT
BRANCH   2  10
ATOM     10  C4  UNK     1       0.174  34.661 233.036  1.00  0.00    -0.012 A 
ATOM     11  C8  UNK     1      -0.904  35.423 232.595  1.00  0.00     0.110 A 
ATOM     12  C15 UNK     1      -0.999  35.776 231.250  1.00  0.00     0.037 A 
ATOM     13  C17 UNK     1      -0.017  35.365 230.349  1.00  0.00     0.002 A 
ATOM     14  C16 UNK     1       1.062  34.601 230.794  1.00  0.00     0.001 A 
ATOM     15  C9  UNK     1       1.157  34.248 232.141  1.00  0.00     0.011 A 
BRANCH  11  16
ATOM     16  N2  UNK     1      -1.918  35.852 233.496  1.00  0.00    -0.115 N 
ATOM     17  O5  UNK     1      -2.965  35.169 233.599  1.00  0.00    -0.532 OA
ATOM     18  O6  UNK     1      -1.736  36.901 234.159  1.00  0.00    -0.532 OA
ENDBRANCH  11  16
ENDBRANCH   2  10
BRANCH   3  19
ATOM     19  C7  UNK     1      -0.902  32.022 234.247  1.00  0.00     0.292 C 
ATOM     20  O3  UNK     1      -1.235  31.784 233.101  1.00  0.00    -0.259 OA
BRANCH  19  21
ATOM     21  O1  UNK     1      -1.552  31.708 235.392  1.00  0.00    -0.317 OA
BRANCH  21  22
ATOM     22  C14 UNK     1      -2.658  32.558 235.717  1.00  0.00     0.183 C 
BRANCH  22  23
ATOM     23  C13 UNK     1      -2.486  33.122 237.130  1.00  0.00     0.002 C 
ATOM     24  C18 UNK     1      -2.232  34.626 237.076  1.00  0.00     0.011 C 
ATOM     25  C19 UNK     1      -1.353  32.417 237.878  1.00  0.00     0.011 C 
ENDBRANCH  22  23
ENDBRANCH  21  22
ENDBRANCH  19  21
ENDBRANCH   3  19
BRANCH   4  26
ATOM     26  C11 UNK     1       1.488  36.400 235.235  1.00  0.00     0.291 C 
ATOM     27  O4  UNK     1       2.007  37.166 234.444  1.00  0.00    -0.260 OA
BRANCH  26  28
ATOM     28  O2  UNK     1       0.787  36.698 236.356  1.00  0.00    -0.323 OA
ATOM     29  C20 UNK     1       1.493  37.486 237.321  1.00  0.00     0.213 C 
ENDBRANCH  26  28
ENDBRANCH   4  26
TORSDOF 8
ENDMDL
MODEL 6
REMARK VINA RESULT:      -5.5      2.428      5.366
REMARK  8 active torsions:
REMARK  status: ('A' for Active; 'I' for Inactive)
REMARK    1  A    between atoms: O1_1  and  C7_15 
REMARK    2  A    between atoms: O1_1  and  C14_22 
REMARK    3  A    between atoms: O2_2  and  C11_19 
REMARK    4  A    between atoms: N2_8  and  C8_16 
REMARK    5  A    between atoms: C1_9  and  C4_12 
REMARK    6  A    between atoms: C2_10  and  C7_15 
REMARK    7  A    between atoms: C3_11  and  C11_19 
REMARK    8  A    between atoms: C13_21  and  C14_22 
ROOT
ATOM      1  N1  UNK     1       3.650  34.777 237.526  1.00  0.00    -0.362 N 
ATOM      2  C1  UNK     1       2.379  33.628 235.269  1.00  0.00     0.103 C 
ATOM      3  C2  UNK     1       2.350  35.129 235.580  1.00  0.00     0.052 C 
ATOM      4  C3  UNK     1       3.298  32.841 236.210  1.00  0.00     0.052 C 
ATOM      5  C5  UNK     1       2.960  35.629 236.678  1.00  0.00     0.018 C 
ATOM      6  C6  UNK     1       3.861  33.428 237.290  1.00  0.00     0.018 C 
ATOM      7  C10 UNK     1       2.961  37.076 237.093  1.00  0.00     0.069 C 
ATOM      8  C12 UNK     1       4.735  32.737 238.302  1.00  0.00     0.069 C 
ATOM      9  H2  UNK     1       4.089  35.184 238.344  1.00  0.00     0.165 HD
ENDROOT
BRANCH   2  10
ATOM     10  C4  UNK     1       0.988  33.066 235.326  1.00  0.00    -0.012 A 
ATOM     11  C8  UNK     1       0.387  32.516 234.198  1.00  0.00     0.110 A 
ATOM     12  C15 UNK     1      -0.906  32.003 234.282  1.00  0.00     0.037 A 
ATOM     13  C17 UNK     1      -1.596  32.043 235.495  1.00  0.00     0.002 A 
ATOM     14  C16 UNK     1      -0.991  32.597 236.622  1.00  0.00     0.001 A 
ATOM     15  C9  UNK     1       0.305  33.110 236.538  1.00  0.00     0.011 A 
BRANCH  11  16
ATOM     16  N2  UNK     1       1.071  32.466 232.951  1.00  0.00    -0.115 N 
ATOM     17  O5  UNK     1       0.990  33.449 232.177  1.00  0.00    -0.532 OA
ATOM     18  O6  UNK     1       1.733  31.440 232.664  1.00  0.00    -0.532 OA
ENDBRANCH  11  16
ENDBRANCH   2  10
BRANCH   3  19
ATOM     19  C7  UNK     1       1.683  35.993 234.591  1.00  0.00     0.292 C 
ATOM     20  O3  UNK     1       2.226  36.392 233.578  1.00  0.00    -0.259 OA
BRANCH  19  21
ATOM     21  O1  UNK     1       0.421  36.236 235.018  1.00  0.00    -0.317 OA
BRANCH  21  22
ATOM     22  C14 UNK     1      -0.594  36.111 234.016  1.00  0.00     0.183 C 
BRANCH  22  23
ATOM     23  C13 UNK     1      -1.980  36.194 234.662  1.00  0.00     0.002 C 
ATOM     24  C18 UNK     1      -1.868  36.057 236.179  1.00  0.00     0.011 C 
ATOM     25  C19 UNK     1      -2.923  35.130 234.099  1.00  0.00     0.011 C 
ENDBRANCH  22  23
ENDBRANCH  21  22
ENDBRANCH  19  21
ENDBRANCH   3  19
BRANCH   4  26
ATOM     26  C11 UNK     1       3.572  31.442 235.846  1.00  0.00     0.291 C 
ATOM     27  O4  UNK     1       4.296  31.122 234.922  1.00  0.00    -0.260 OA
BRANCH  26  28
ATOM     28  O2  UNK     1       2.895  30.637 236.700  1.00  0.00    -0.323 OA
ATOM     29  C20 UNK     1       1.999  29.709 236.077  1.00  0.00     0.213 C 
ENDBRANCH  26  28
ENDBRANCH   4  26
TORSDOF 8
ENDMDL
MODEL 7
REMARK VINA RESULT:      -5.5      2.639      5.932
REMARK  8 active torsions:
REMARK  status: ('A' for Active; 'I' for Inactive)
REMARK    1  A    between atoms: O1_1  and  C7_15 
REMARK    2  A    between atoms: O1_1  and  C14_22 
REMARK    3  A    between atoms: O2_2  and  C11_19 
REMARK    4  A    between atoms: N2_8  and  C8_16 
REMARK    5  A    between atoms: C1_9  and  C4_12 
REMARK    6  A    between atoms: C2_10  and  C7_15 
REMARK    7  A    between atoms: C3_11  and  C11_19 
REMARK    8  A    between atoms: C13_21  and  C14_22 
ROOT
ATOM      1  N1  UNK     1       2.593  32.861 235.481  1.00  0.00    -0.362 N 
ATOM      2  C1  UNK     1       0.332  34.236 234.467  1.00  0.00     0.103 C 
ATOM      3  C2  UNK     1       0.410  32.709 234.578  1.00  0.00     0.052 C 
ATOM      4  C3  UNK     1       1.531  34.943 235.110  1.00  0.00     0.052 C 
ATOM      5  C5  UNK     1       1.517  32.097 235.056  1.00  0.00     0.018 C 
ATOM      6  C6  UNK     1       2.599  34.244 235.556  1.00  0.00     0.018 C 
ATOM      7  C10 UNK     1       1.711  30.608 235.171  1.00  0.00     0.069 C 
ATOM      8  C12 UNK     1       3.845  34.841 236.154  1.00  0.00     0.069 C 
ATOM      9  H2  UNK     1       3.410  32.369 235.826  1.00  0.00     0.165 HD
ENDROOT
BRANCH   2  10
ATOM     10  C4  UNK     1       0.214  34.640 233.026  1.00  0.00    -0.012 A 
ATOM     11  C8  UNK     1      -0.874  35.380 232.574  1.00  0.00     0.110 A 
ATOM     12  C15 UNK     1      -0.957  35.740 231.230  1.00  0.00     0.037 A 
ATOM     13  C17 UNK     1       0.049  35.356 230.341  1.00  0.00     0.002 A 
ATOM     14  C16 UNK     1       1.137  34.614 230.798  1.00  0.00     0.001 A 
ATOM     15  C9  UNK     1       1.220  34.254 232.145  1.00  0.00     0.011 A 
BRANCH  11  16
ATOM     16  N2  UNK     1      -1.912  35.781 233.461  1.00  0.00    -0.115 N 
ATOM     17  O5  UNK     1      -1.780  36.850 234.103  1.00  0.00    -0.532 OA
ATOM     18  O6  UNK     1      -2.927  35.053 233.574  1.00  0.00    -0.532 OA
ENDBRANCH  11  16
ENDBRANCH   2  10
BRANCH   3  19
ATOM     19  C7  UNK     1      -0.799  31.960 234.200  1.00  0.00     0.292 C 
ATOM     20  O3  UNK     1      -1.847  32.026 234.815  1.00  0.00    -0.259 OA
BRANCH  19  21
ATOM     21  O1  UNK     1      -0.520  31.226 233.096  1.00  0.00    -0.317 OA
BRANCH  21  22
ATOM     22  C14 UNK     1      -1.303  31.546 231.940  1.00  0.00     0.183 C 
BRANCH  22  23
ATOM     23  C13 UNK     1      -0.649  30.957 230.687  1.00  0.00     0.002 C 
ATOM     24  C18 UNK     1       0.847  30.755 230.912  1.00  0.00     0.011 C 
ATOM     25  C19 UNK     1      -0.888  31.845 229.464  1.00  0.00     0.011 C 
ENDBRANCH  22  23
ENDBRANCH  21  22
ENDBRANCH  19  21
ENDBRANCH   3  19
BRANCH   4  26
ATOM     26  C11 UNK     1       1.432  36.403 235.261  1.00  0.00     0.291 C 
ATOM     27  O4  UNK     1       1.972  37.191 234.507  1.00  0.00    -0.260 OA
BRANCH  26  28
ATOM     28  O2  UNK     1       0.660  36.671 236.343  1.00  0.00    -0.323 OA
ATOM     29  C20 UNK     1       1.226  37.598 237.276  1.00  0.00     0.213 C 
ENDBRANCH  26  28
ENDBRANCH   4  26
TORSDOF 8
ENDMDL
MODEL 8
REMARK VINA RESULT:      -5.5      2.427      4.849
REMARK  8 active torsions:
REMARK  status: ('A' for Active; 'I' for Inactive)
REMARK    1  A    between atoms: O1_1  and  C7_15 
REMARK    2  A    between atoms: O1_1  and  C14_22 
REMARK    3  A    between atoms: O2_2  and  C11_19 
REMARK    4  A    between atoms: N2_8  and  C8_16 
REMARK    5  A    between atoms: C1_9  and  C4_12 
REMARK    6  A    between atoms: C2_10  and  C7_15 
REMARK    7  A    between atoms: C3_11  and  C11_19 
REMARK    8  A    between atoms: C13_21  and  C14_22 
ROOT
ATOM      1  N1  UNK     1      -2.776  33.196 234.248  1.00  0.00    -0.362 N 
ATOM      2  C1  UNK     1      -0.401  34.730 234.451  1.00  0.00     0.103 C 
ATOM      3  C2  UNK     1      -0.664  33.469 235.282  1.00  0.00     0.052 C 
ATOM      4  C3  UNK     1      -1.479  34.980 233.389  1.00  0.00     0.052 C 
ATOM      5  C5  UNK     1      -1.819  32.777 235.160  1.00  0.00     0.018 C 
ATOM      6  C6  UNK     1      -2.608  34.238 233.350  1.00  0.00     0.018 C 
ATOM      7  C10 UNK     1      -2.191  31.552 235.952  1.00  0.00     0.069 C 
ATOM      8  C12 UNK     1      -3.747  34.432 232.385  1.00  0.00     0.069 C 
ATOM      9  H2  UNK     1      -3.633  32.659 234.189  1.00  0.00     0.165 HD
ENDROOT
BRANCH   2  10
ATOM     10  C4  UNK     1      -0.288  35.924 235.354  1.00  0.00    -0.012 A 
ATOM     11  C8  UNK     1       0.925  36.587 235.520  1.00  0.00     0.110 A 
ATOM     12  C15 UNK     1       0.999  37.692 236.366  1.00  0.00     0.037 A 
ATOM     13  C17 UNK     1      -0.138  38.130 237.045  1.00  0.00     0.002 A 
ATOM     14  C16 UNK     1      -1.351  37.463 236.876  1.00  0.00     0.001 A 
ATOM     15  C9  UNK     1      -1.426  36.356 236.028  1.00  0.00     0.011 A 
BRANCH  11  16
ATOM     16  N2  UNK     1       2.098  36.157 234.840  1.00  0.00    -0.115 N 
ATOM     17  O5  UNK     1       2.899  35.398 235.436  1.00  0.00    -0.532 OA
ATOM     18  O6  UNK     1       2.297  36.550 233.666  1.00  0.00    -0.532 OA
ENDBRANCH  11  16
ENDBRANCH   2  10
BRANCH   3  19
ATOM     19  C7  UNK     1       0.429  33.022 236.161  1.00  0.00     0.292 C 
ATOM     20  O3  UNK     1       0.500  33.313 237.341  1.00  0.00    -0.259 OA
BRANCH  19  21
ATOM     21  O1  UNK     1       1.284  32.267 235.430  1.00  0.00    -0.317 OA
BRANCH  21  22
ATOM     22  C14 UNK     1       2.215  31.492 236.194  1.00  0.00     0.183 C 
BRANCH  22  23
ATOM     23  C13 UNK     1       3.638  32.007 235.960  1.00  0.00     0.002 C 
ATOM     24  C18 UNK     1       4.508  30.910 235.350  1.00  0.00     0.011 C 
ATOM     25  C19 UNK     1       4.265  32.523 237.257  1.00  0.00     0.011 C 
ENDBRANCH  22  23
ENDBRANCH  21  22
ENDBRANCH  19  21
ENDBRANCH   3  19
BRANCH   4  26
ATOM     26  C11 UNK     1      -1.194  36.027 232.395  1.00  0.00     0.291 C 
ATOM     27  O4  UNK     1      -1.700  37.134 232.426  1.00  0.00    -0.260 OA
BRANCH  26  28
ATOM     28  O2  UNK     1      -0.307  35.535 231.497  1.00  0.00    -0.323 OA
ATOM     29  C20 UNK     1      -0.768  35.508 230.141  1.00  0.00     0.213 C 
ENDBRANCH  26  28
ENDBRANCH   4  26
TORSDOF 8
ENDMDL
MODEL 9
REMARK VINA RESULT:      -5.4      2.276      5.863
REMARK  8 active torsions:
REMARK  status: ('A' for Active; 'I' for Inactive)
REMARK    1  A    between atoms: O1_1  and  C7_15 
REMARK    2  A    between atoms: O1_1  and  C14_22 
REMARK    3  A    between atoms: O2_2  and  C11_19 
REMARK    4  A    between atoms: N2_8  and  C8_16 
REMARK    5  A    between atoms: C1_9  and  C4_12 
REMARK    6  A    between atoms: C2_10  and  C7_15 
REMARK    7  A    between atoms: C3_11  and  C11_19 
REMARK    8  A    between atoms: C13_21  and  C14_22 
ROOT
ATOM      1  N1  UNK     1       0.146  36.812 234.685  1.00  0.00    -0.362 N 
ATOM      2  C1  UNK     1       1.368  34.266 234.928  1.00  0.00     0.103 C 
ATOM      3  C2  UNK     1       0.301  34.592 233.877  1.00  0.00     0.052 C 
ATOM      4  C3  UNK     1       1.820  35.498 235.721  1.00  0.00     0.052 C 
ATOM      5  C5  UNK     1      -0.264  35.819 233.809  1.00  0.00     0.018 C 
ATOM      6  C6  UNK     1       1.188  36.686 235.590  1.00  0.00     0.018 C 
ATOM      7  C10 UNK     1      -1.343  36.231 232.843  1.00  0.00     0.069 C 
ATOM      8  C12 UNK     1       1.517  37.939 236.356  1.00  0.00     0.069 C 
ATOM      9  H2  UNK     1      -0.304  37.717 234.612  1.00  0.00     0.165 HD
ENDROOT
BRANCH   2  10
ATOM     10  C4  UNK     1       0.857  33.213 235.867  1.00  0.00    -0.012 A 
ATOM     11  C8  UNK     1       1.451  31.956 235.930  1.00  0.00     0.110 A 
ATOM     12  C15 UNK     1       0.953  30.998 236.812  1.00  0.00     0.037 A 
ATOM     13  C17 UNK     1      -0.139  31.300 237.628  1.00  0.00     0.002 A 
ATOM     14  C16 UNK     1      -0.731  32.561 237.561  1.00  0.00     0.001 A 
ATOM     15  C9  UNK     1      -0.232  33.520 236.678  1.00  0.00     0.011 A 
BRANCH  11  16
ATOM     16  N2  UNK     1       2.563  31.625 235.106  1.00  0.00    -0.115 N 
ATOM     17  O5  UNK     1       3.719  31.877 235.521  1.00  0.00    -0.532 OA
ATOM     18  O6  UNK     1       2.353  31.092 233.991  1.00  0.00    -0.532 OA
ENDBRANCH  11  16
ENDBRANCH   2  10
BRANCH   3  19
ATOM     19  C7  UNK     1      -0.022  33.526 232.915  1.00  0.00     0.292 C 
ATOM     20  O3  UNK     1      -1.034  32.853 232.977  1.00  0.00    -0.259 OA
BRANCH  19  21
ATOM     21  O1  UNK     1       0.978  33.454 232.005  1.00  0.00    -0.317 OA
BRANCH  21  22
ATOM     22  C14 UNK     1       0.627  32.830 230.764  1.00  0.00     0.183 C 
BRANCH  22  23
ATOM     23  C13 UNK     1       0.599  33.873 229.644  1.00  0.00     0.002 C 
ATOM     24  C18 UNK     1       1.529  35.037 229.977  1.00  0.00     0.011 C 
ATOM     25  C19 UNK     1      -0.822  34.382 229.391  1.00  0.00     0.011 C 
ENDBRANCH  22  23
ENDBRANCH  21  22
ENDBRANCH  19  21
ENDBRANCH   3  19
BRANCH   4  26
ATOM     26  C11 UNK     1       3.000  35.329 236.584  1.00  0.00     0.291 C 
ATOM     27  O4  UNK     1       4.137  35.253 236.154  1.00  0.00    -0.260 OA
BRANCH  26  28
ATOM     28  O2  UNK     1       2.586  35.282 237.873  1.00  0.00    -0.323 OA
ATOM     29  C20 UNK     1       3.047  34.149 238.618  1.00  0.00     0.213 C 
ENDBRANCH  26  28
ENDBRANCH   4  26
TORSDOF 8
ENDMDL
