MODEL 1
REMARK VINA RESULT:      -5.9      0.000      0.000
REMARK  3 active torsions:
REMARK  status: ('A' for Active; 'I' for Inactive)
REMARK    1  A    between atoms: C6_6  and  C8_11 
REMARK    2  A    between atoms: C7_7  and  C8_11 
REMARK    3  A    between atoms: C12_15  and  N2_16 
ROOT
ATOM      1  C2  UNK     1       1.056  40.169 226.667  1.00  0.00     0.033 C 
ATOM      2  C3  UNK     1       2.260  41.887 227.951  1.00  0.00     0.224 C 
ATOM      3  C4  UNK     1      -0.037  41.501 228.470  1.00  0.00     0.237 C 
ATOM      4  C5  UNK     1       2.367  40.500 227.370  1.00  0.00     0.105 C 
ATOM      5  O1  UNK     1       3.245  42.612 228.014  1.00  0.00    -0.273 OA
ATOM      6  O2  UNK     1      -0.928  41.815 229.246  1.00  0.00    -0.272 OA
ATOM      7  N1  UNK     1       1.055  42.272 228.378  1.00  0.00    -0.297 N 
ATOM      8  C8  UNK     1      -0.158  40.258 227.597  1.00  0.00     0.068 C 
ATOM      9  H8  UNK     1       0.959  43.230 228.656  1.00  0.00     0.171 HD
ENDROOT
BRANCH   8  10
ATOM     10  C6  UNK     1      -1.330  40.304 226.623  1.00  0.00    -0.040 A 
ATOM     11  C10 UNK     1      -2.515  39.623 226.934  1.00  0.00     0.010 A 
ATOM     12  C11 UNK     1      -3.600  39.618 226.061  1.00  0.00     0.024 A 
ATOM     13  C12 UNK     1      -3.518  40.278 224.846  1.00  0.00     0.005 A 
ATOM     14  C1  UNK     1      -2.345  40.951 224.509  1.00  0.00     0.024 A 
ATOM     15  C13 UNK     1      -1.258  40.959 225.387  1.00  0.00     0.010 A 
BRANCH  13  16
ATOM     16  N2  UNK     1      -4.581  40.256 224.010  1.00  0.00    -0.303 NA
ATOM     17  H14 UNK     1      -4.311  39.851 223.138  1.00  0.00     0.124 HD
ATOM     18  H15 UNK     1      -5.315  39.712 224.419  1.00  0.00     0.124 HD
ENDBRANCH  13  16
ENDBRANCH   8  10
BRANCH   8  19
ATOM     19  C7  UNK     1      -0.163  39.002 228.485  1.00  0.00     0.020 C 
ATOM     20  C9  UNK     1       0.443  37.765 227.867  1.00  0.00     0.006 C 
ENDBRANCH   8  19
TORSDOF 3
ENDMDL
MODEL 2
REMARK VINA RESULT:      -5.8     10.608     11.878
REMARK  3 active torsions:
REMARK  status: ('A' for Active; 'I' for Inactive)
REMARK    1  A    between atoms: C6_6  and  C8_11 
REMARK    2  A    between atoms: C7_7  and  C8_11 
REMARK    3  A    between atoms: C12_15  and  N2_16 
ROOT
ATOM      1  C2  UNK     1       2.843  34.707 236.307  1.00  0.00     0.033 C 
ATOM      2  C3  UNK     1       3.653  33.123 238.006  1.00  0.00     0.224 C 
ATOM      3  C4  UNK     1       1.295  33.403 237.765  1.00  0.00     0.237 C 
ATOM      4  C5  UNK     1       3.860  33.609 236.593  1.00  0.00     0.105 C 
ATOM      5  O1  UNK     1       4.603  32.745 238.679  1.00  0.00    -0.273 OA
ATOM      6  O2  UNK     1       0.218  32.979 238.155  1.00  0.00    -0.272 OA
ATOM      7  N1  UNK     1       2.402  33.134 238.472  1.00  0.00    -0.297 N 
ATOM      8  C8  UNK     1       1.396  34.244 236.497  1.00  0.00     0.068 C 
ATOM      9  H8  UNK     1       2.279  32.923 239.443  1.00  0.00     0.171 HD
ENDROOT
BRANCH   8  10
ATOM     10  C6  UNK     1       0.624  35.556 236.568  1.00  0.00    -0.040 A 
ATOM     11  C10 UNK     1      -0.729  35.584 236.205  1.00  0.00     0.010 A 
ATOM     12  C11 UNK     1      -1.463  36.767 236.231  1.00  0.00     0.024 A 
ATOM     13  C12 UNK     1      -0.855  37.955 236.603  1.00  0.00     0.005 A 
ATOM     14  C1  UNK     1       0.492  37.954 236.956  1.00  0.00     0.024 A 
ATOM     15  C13 UNK     1       1.228  36.767 236.933  1.00  0.00     0.010 A 
BRANCH  13  16
ATOM     16  N2  UNK     1      -1.586  39.093 236.616  1.00  0.00    -0.303 NA
ATOM     17  H14 UNK     1      -1.039  39.835 237.004  1.00  0.00     0.124 HD
ATOM     18  H15 UNK     1      -1.853  39.329 235.681  1.00  0.00     0.124 HD
ENDBRANCH  13  16
ENDBRANCH   8  10
BRANCH   8  19
ATOM     19  C7  UNK     1       1.013  33.386 235.278  1.00  0.00     0.020 C 
ATOM     20  C9  UNK     1       1.461  33.921 233.940  1.00  0.00     0.006 C 
ENDBRANCH   8  19
TORSDOF 3
ENDMDL
MODEL 3
REMARK VINA RESULT:      -5.7      8.545     11.194
REMARK  3 active torsions:
REMARK  status: ('A' for Active; 'I' for Inactive)
REMARK    1  A    between atoms: C6_6  and  C8_11 
REMARK    2  A    between atoms: C7_7  and  C8_11 
REMARK    3  A    between atoms: C12_15  and  N2_16 
ROOT
ATOM      1  C2  UNK     1      -0.589  36.291 235.648  1.00  0.00     0.033 C 
ATOM      2  C3  UNK     1      -1.363  36.371 233.313  1.00  0.00     0.224 C 
ATOM      3  C4  UNK     1       0.634  35.154 233.794  1.00  0.00     0.237 C 
ATOM      4  C5  UNK     1      -1.813  36.207 234.743  1.00  0.00     0.105 C 
ATOM      5  O1  UNK     1      -2.083  36.928 232.494  1.00  0.00    -0.273 OA
ATOM      6  O2  UNK     1       1.480  34.430 233.292  1.00  0.00    -0.272 OA
ATOM      7  N1  UNK     1      -0.157  35.890 233.000  1.00  0.00    -0.297 N 
ATOM      8  C8  UNK     1       0.476  35.245 235.308  1.00  0.00     0.068 C 
ATOM      9  H8  UNK     1       0.190  36.101 232.085  1.00  0.00     0.171 HD
ENDROOT
BRANCH   8  10
ATOM     10  C6  UNK     1       1.714  35.775 236.023  1.00  0.00    -0.040 A 
ATOM     11  C10 UNK     1       1.676  37.038 236.628  1.00  0.00     0.010 A 
ATOM     12  C11 UNK     1       2.793  37.569 237.269  1.00  0.00     0.024 A 
ATOM     13  C12 UNK     1       3.980  36.857 237.302  1.00  0.00     0.005 A 
ATOM     14  C1  UNK     1       4.046  35.605 236.696  1.00  0.00     0.024 A 
ATOM     15  C13 UNK     1       2.925  35.070 236.055  1.00  0.00     0.010 A 
BRANCH  13  16
ATOM     16  N2  UNK     1       5.054  37.394 237.926  1.00  0.00    -0.303 NA
ATOM     17  H14 UNK     1       5.293  36.834 238.719  1.00  0.00     0.124 HD
ATOM     18  H15 UNK     1       5.828  37.423 237.291  1.00  0.00     0.124 HD
ENDBRANCH  13  16
ENDBRANCH   8  10
BRANCH   8  19
ATOM     19  C7  UNK     1      -0.003  33.891 235.858  1.00  0.00     0.020 C 
ATOM     20  C9  UNK     1      -0.404  33.885 237.313  1.00  0.00     0.006 C 
ENDBRANCH   8  19
TORSDOF 3
ENDMDL
MODEL 4
REMARK VINA RESULT:      -5.7      9.504     11.918
REMARK  3 active torsions:
REMARK  status: ('A' for Active; 'I' for Inactive)
REMARK    1  A    between atoms: C6_6  and  C8_11 
REMARK    2  A    between atoms: C7_7  and  C8_11 
REMARK    3  A    between atoms: C12_15  and  N2_16 
ROOT
ATOM      1  C2  UNK     1      -0.113  35.737 235.819  1.00  0.00     0.033 C 
ATOM      2  C3  UNK     1      -0.740  37.915 236.776  1.00  0.00     0.224 C 
ATOM      3  C4  UNK     1       1.576  37.338 236.716  1.00  0.00     0.237 C 
ATOM      4  C5  UNK     1      -1.013  36.955 235.646  1.00  0.00     0.105 C 
ATOM      5  O1  UNK     1      -1.639  38.609 237.234  1.00  0.00    -0.273 OA
ATOM      6  O2  UNK     1       2.695  37.772 236.945  1.00  0.00    -0.272 OA
ATOM      7  N1  UNK     1       0.511  37.959 237.243  1.00  0.00    -0.297 N 
ATOM      8  C8  UNK     1       1.375  36.096 235.856  1.00  0.00     0.068 C 
ATOM      9  H8  UNK     1       0.667  38.508 238.066  1.00  0.00     0.171 HD
ENDROOT
BRANCH   8  10
ATOM     10  C6  UNK     1       2.014  34.839 236.434  1.00  0.00    -0.040 A 
ATOM     11  C10 UNK     1       1.339  34.111 237.423  1.00  0.00     0.010 A 
ATOM     12  C11 UNK     1       1.900  32.972 237.996  1.00  0.00     0.024 A 
ATOM     13  C12 UNK     1       3.159  32.545 237.607  1.00  0.00     0.005 A 
ATOM     14  C1  UNK     1       3.855  33.261 236.635  1.00  0.00     0.024 A 
ATOM     15  C13 UNK     1       3.292  34.402 236.058  1.00  0.00     0.010 A 
BRANCH  13  16
ATOM     16  N2  UNK     1       3.687  31.440 238.179  1.00  0.00    -0.303 NA
ATOM     17  H14 UNK     1       4.300  30.989 237.531  1.00  0.00     0.124 HD
ATOM     18  H15 UNK     1       4.199  31.701 238.999  1.00  0.00     0.124 HD
ENDBRANCH  13  16
ENDBRANCH   8  10
BRANCH   8  19
ATOM     19  C7  UNK     1       1.824  36.389 234.414  1.00  0.00     0.020 C 
ATOM     20  C9  UNK     1       1.295  35.445 233.362  1.00  0.00     0.006 C 
ENDBRANCH   8  19
TORSDOF 3
ENDMDL
MODEL 5
REMARK VINA RESULT:      -5.6     10.485     12.238
REMARK  3 active torsions:
REMARK  status: ('A' for Active; 'I' for Inactive)
REMARK    1  A    between atoms: C6_6  and  C8_11 
REMARK    2  A    between atoms: C7_7  and  C8_11 
REMARK    3  A    between atoms: C12_15  and  N2_16 
ROOT
ATOM      1  C2  UNK     1       1.236  33.181 237.366  1.00  0.00     0.033 C 
ATOM      2  C3  UNK     1       2.777  31.839 235.994  1.00  0.00     0.224 C 
ATOM      3  C4  UNK     1       3.243  34.165 236.257  1.00  0.00     0.237 C 
ATOM      4  C5  UNK     1       1.973  31.851 237.271  1.00  0.00     0.105 C 
ATOM      5  O1  UNK     1       2.950  30.795 235.379  1.00  0.00    -0.273 OA
ATOM      6  O2  UNK     1       4.066  35.030 235.999  1.00  0.00    -0.272 OA
ATOM      7  N1  UNK     1       3.270  33.009 235.581  1.00  0.00    -0.297 N 
ATOM      8  C8  UNK     1       2.177  34.389 237.324  1.00  0.00     0.068 C 
ATOM      9  H8  UNK     1       3.703  33.022 234.678  1.00  0.00     0.171 HD
ENDROOT
BRANCH   8  10
ATOM     10  C6  UNK     1       1.234  35.546 237.017  1.00  0.00    -0.040 A 
ATOM     11  C10 UNK     1       1.636  36.860 237.293  1.00  0.00     0.010 A 
ATOM     12  C11 UNK     1       0.794  37.942 237.051  1.00  0.00     0.024 A 
ATOM     13  C12 UNK     1      -0.478  37.735 236.544  1.00  0.00     0.005 A 
ATOM     14  C1  UNK     1      -0.905  36.437 236.274  1.00  0.00     0.024 A 
ATOM     15  C13 UNK     1      -0.060  35.350 236.514  1.00  0.00     0.010 A 
BRANCH  13  16
ATOM     16  N2  UNK     1      -1.281  38.800 236.321  1.00  0.00    -0.303 NA
ATOM     17  H14 UNK     1      -2.060  38.519 235.762  1.00  0.00     0.124 HD
ATOM     18  H15 UNK     1      -1.609  39.159 237.196  1.00  0.00     0.124 HD
ENDBRANCH  13  16
ENDBRANCH   8  10
BRANCH   8  19
ATOM     19  C7  UNK     1       2.846  34.510 238.704  1.00  0.00     0.020 C 
ATOM     20  C9  UNK     1       4.176  33.810 238.847  1.00  0.00     0.006 C 
ENDBRANCH   8  19
TORSDOF 3
ENDMDL
MODEL 6
REMARK VINA RESULT:      -5.5     10.367     12.805
REMARK  3 active torsions:
REMARK  status: ('A' for Active; 'I' for Inactive)
REMARK    1  A    between atoms: C6_6  and  C8_11 
REMARK    2  A    between atoms: C7_7  and  C8_11 
REMARK    3  A    between atoms: C12_15  and  N2_16 
ROOT
ATOM      1  C2  UNK     1       0.843  34.725 237.192  1.00  0.00     0.033 C 
ATOM      2  C3  UNK     1      -1.072  36.175 236.658  1.00  0.00     0.224 C 
ATOM      3  C4  UNK     1       1.124  37.019 236.252  1.00  0.00     0.237 C 
ATOM      4  C5  UNK     1      -0.550  34.762 236.574  1.00  0.00     0.105 C 
ATOM      5  O1  UNK     1      -2.267  36.387 236.816  1.00  0.00    -0.273 OA
ATOM      6  O2  UNK     1       1.732  37.966 235.777  1.00  0.00    -0.272 OA
ATOM      7  N1  UNK     1      -0.174  37.158 236.558  1.00  0.00    -0.297 N 
ATOM      8  C8  UNK     1       1.822  35.689 236.514  1.00  0.00     0.068 C 
ATOM      9  H8  UNK     1      -0.502  38.088 236.729  1.00  0.00     0.171 HD
ENDROOT
BRANCH   8  10
ATOM     10  C6  UNK     1       2.961  35.783 237.522  1.00  0.00    -0.040 A 
ATOM     11  C10 UNK     1       3.070  34.820 238.535  1.00  0.00     0.010 A 
ATOM     12  C11 UNK     1       4.080  34.884 239.491  1.00  0.00     0.024 A 
ATOM     13  C12 UNK     1       4.995  35.924 239.469  1.00  0.00     0.005 A 
ATOM     14  C1  UNK     1       4.898  36.901 238.480  1.00  0.00     0.024 A 
ATOM     15  C13 UNK     1       3.886  36.835 237.518  1.00  0.00     0.010 A 
BRANCH  13  16
ATOM     16  N2  UNK     1       5.965  35.970 240.410  1.00  0.00    -0.303 NA
ATOM     17  H14 UNK     1       5.595  36.362 241.252  1.00  0.00     0.124 HD
ATOM     18  H15 UNK     1       6.298  35.043 240.590  1.00  0.00     0.124 HD
ENDBRANCH  13  16
ENDBRANCH   8  10
BRANCH   8  19
ATOM     19  C7  UNK     1       2.252  35.060 235.178  1.00  0.00     0.020 C 
ATOM     20  C9  UNK     1       2.610  33.595 235.233  1.00  0.00     0.006 C 
ENDBRANCH   8  19
TORSDOF 3
ENDMDL
MODEL 7
REMARK VINA RESULT:      -5.4      9.910     11.159
REMARK  3 active torsions:
REMARK  status: ('A' for Active; 'I' for Inactive)
REMARK    1  A    between atoms: C6_6  and  C8_11 
REMARK    2  A    between atoms: C7_7  and  C8_11 
REMARK    3  A    between atoms: C12_15  and  N2_16 
ROOT
ATOM      1  C2  UNK     1       2.395  34.352 237.119  1.00  0.00     0.033 C 
ATOM      2  C3  UNK     1       3.797  36.368 237.277  1.00  0.00     0.224 C 
ATOM      3  C4  UNK     1       2.298  36.185 235.429  1.00  0.00     0.237 C 
ATOM      4  C5  UNK     1       2.945  35.409 238.070  1.00  0.00     0.105 C 
ATOM      5  O1  UNK     1       4.781  36.889 237.785  1.00  0.00    -0.273 OA
ATOM      6  O2  UNK     1       1.865  36.791 234.460  1.00  0.00    -0.272 OA
ATOM      7  N1  UNK     1       3.427  36.605 236.016  1.00  0.00    -0.297 N 
ATOM      8  C8  UNK     1       1.581  34.952 235.968  1.00  0.00     0.068 C 
ATOM      9  H8  UNK     1       4.054  37.148 235.456  1.00  0.00     0.171 HD
ENDROOT
BRANCH   8  10
ATOM     10  C6  UNK     1       1.504  33.802 234.970  1.00  0.00    -0.040 A 
ATOM     11  C10 UNK     1       2.254  32.639 235.194  1.00  0.00     0.010 A 
ATOM     12  C11 UNK     1       2.232  31.577 234.294  1.00  0.00     0.024 A 
ATOM     13  C12 UNK     1       1.473  31.660 233.138  1.00  0.00     0.005 A 
ATOM     14  C1  UNK     1       0.729  32.811 232.887  1.00  0.00     0.024 A 
ATOM     15  C13 UNK     1       0.749  33.877 233.792  1.00  0.00     0.010 A 
BRANCH  13  16
ATOM     16  N2  UNK     1       1.469  30.619 232.275  1.00  0.00    -0.303 NA
ATOM     17  H14 UNK     1       2.272  30.046 232.440  1.00  0.00     0.124 HD
ATOM     18  H15 UNK     1       0.638  30.077 232.410  1.00  0.00     0.124 HD
ENDBRANCH  13  16
ENDBRANCH   8  10
BRANCH   8  19
ATOM     19  C7  UNK     1       0.206  35.357 236.526  1.00  0.00     0.020 C 
ATOM     20  C9  UNK     1      -0.574  34.254 237.199  1.00  0.00     0.006 C 
ENDBRANCH   8  19
TORSDOF 3
ENDMDL
MODEL 8
REMARK VINA RESULT:      -5.4     10.488     12.939
REMARK  3 active torsions:
REMARK  status: ('A' for Active; 'I' for Inactive)
REMARK    1  A    between atoms: C6_6  and  C8_11 
REMARK    2  A    between atoms: C7_7  and  C8_11 
REMARK    3  A    between atoms: C12_15  and  N2_16 
ROOT
ATOM      1  C2  UNK     1       2.851  35.188 235.333  1.00  0.00     0.033 C 
ATOM      2  C3  UNK     1       0.454  35.654 235.028  1.00  0.00     0.224 C 
ATOM      3  C4  UNK     1       1.099  34.212 236.818  1.00  0.00     0.237 C 
ATOM      4  C5  UNK     1       1.828  36.276 235.027  1.00  0.00     0.105 C 
ATOM      5  O1  UNK     1      -0.418  36.071 234.276  1.00  0.00    -0.273 OA
ATOM      6  O2  UNK     1       0.665  33.596 237.779  1.00  0.00    -0.272 OA
ATOM      7  N1  UNK     1       0.250  34.640 235.873  1.00  0.00    -0.297 N 
ATOM      8  C8  UNK     1       2.591  34.485 236.669  1.00  0.00     0.068 C 
ATOM      9  H8  UNK     1      -0.621  34.153 235.793  1.00  0.00     0.171 HD
ENDROOT
BRANCH   8  10
ATOM     10  C6  UNK     1       3.438  33.222 236.559  1.00  0.00    -0.040 A 
ATOM     11  C10 UNK     1       3.403  32.465 235.379  1.00  0.00     0.010 A 
ATOM     12  C11 UNK     1       4.141  31.292 235.248  1.00  0.00     0.024 A 
ATOM     13  C12 UNK     1       4.917  30.836 236.301  1.00  0.00     0.005 A 
ATOM     14  C1  UNK     1       4.958  31.564 237.488  1.00  0.00     0.024 A 
ATOM     15  C13 UNK     1       4.219  32.744 237.619  1.00  0.00     0.010 A 
BRANCH  13  16
ATOM     16  N2  UNK     1       5.622  29.692 236.154  1.00  0.00    -0.303 NA
ATOM     17  H14 UNK     1       5.660  29.208 237.028  1.00  0.00     0.124 HD
ATOM     18  H15 UNK     1       5.178  29.112 235.470  1.00  0.00     0.124 HD
ENDBRANCH  13  16
ENDBRANCH   8  10
BRANCH   8  19
ATOM     19  C7  UNK     1       3.058  35.425 237.793  1.00  0.00     0.020 C 
ATOM     20  C9  UNK     1       4.247  36.294 237.463  1.00  0.00     0.006 C 
ENDBRANCH   8  19
TORSDOF 3
ENDMDL
MODEL 9
REMARK VINA RESULT:      -5.4      8.946     11.218
REMARK  3 active torsions:
REMARK  status: ('A' for Active; 'I' for Inactive)
REMARK    1  A    between atoms: C6_6  and  C8_11 
REMARK    2  A    between atoms: C7_7  and  C8_11 
REMARK    3  A    between atoms: C12_15  and  N2_16 
ROOT
ATOM      1  C2  UNK     1       1.557  35.684 233.292  1.00  0.00     0.033 C 
ATOM      2  C3  UNK     1       0.877  33.429 232.579  1.00  0.00     0.224 C 
ATOM      3  C4  UNK     1       0.631  34.001 234.884  1.00  0.00     0.237 C 
ATOM      4  C5  UNK     1       0.838  34.891 232.207  1.00  0.00     0.105 C 
ATOM      5  O1  UNK     1       0.946  32.569 231.711  1.00  0.00    -0.273 OA
ATOM      6  O2  UNK     1       0.199  33.589 235.950  1.00  0.00    -0.272 OA
ATOM      7  N1  UNK     1       0.840  33.136 233.881  1.00  0.00    -0.297 N 
ATOM      8  C8  UNK     1       0.950  35.478 234.683  1.00  0.00     0.068 C 
ATOM      9  H8  UNK     1       0.983  32.177 234.132  1.00  0.00     0.171 HD
ENDROOT
BRANCH   8  10
ATOM     10  C6  UNK     1       2.039  36.002 235.611  1.00  0.00    -0.040 A 
ATOM     11  C10 UNK     1       3.221  35.268 235.776  1.00  0.00     0.010 A 
ATOM     12  C11 UNK     1       4.230  35.698 236.634  1.00  0.00     0.024 A 
ATOM     13  C12 UNK     1       4.071  36.865 237.364  1.00  0.00     0.005 A 
ATOM     14  C1  UNK     1       2.899  37.606 237.227  1.00  0.00     0.024 A 
ATOM     15  C13 UNK     1       1.888  37.175 236.363  1.00  0.00     0.010 A 
BRANCH  13  16
ATOM     16  N2  UNK     1       5.061  37.263 238.195  1.00  0.00    -0.303 NA
ATOM     17  H14 UNK     1       5.654  36.485 238.403  1.00  0.00     0.124 HD
ATOM     18  H15 UNK     1       5.597  37.984 237.754  1.00  0.00     0.124 HD
ENDBRANCH  13  16
ENDBRANCH   8  10
BRANCH   8  19
ATOM     19  C7  UNK     1      -0.349  36.300 234.755  1.00  0.00     0.020 C 
ATOM     20  C9  UNK     1      -1.622  35.530 234.505  1.00  0.00     0.006 C 
ENDBRANCH   8  19
TORSDOF 3
ENDMDL
