REMARK  9 active torsions:
REMARK  status: ('A' for Active; 'I' for Inactive)
REMARK    1  A    between atoms: C10_14  and  O6_16 
REMARK    2  A    between atoms: C16_23  and  O7_24 
REMARK    3  A    between atoms: C27_36  and  O9_37 
REMARK    4  A    between atoms: C28_38  and  O10_39 
REMARK    5  A    between atoms: C34_47  and  C35_48 
REMARK    6  A    between atoms: C35_48  and  C36_49 
REMARK    7  A    between atoms: C36_49  and  C37_50 
REMARK    8  A    between atoms: C39_52  and  O12_53 
REMARK    9  A    between atoms: C40_54  and  O13_55 
ROOT
HETATM    1  C1  RAP  6544     -72.388  19.644  37.582  1.00 20.00     0.282 C 
HETATM    2  O1  RAP  6544     -73.503  20.497  37.357  1.00 20.00    -0.314 OA
HETATM    3  O2  RAP  6544     -72.605  18.512  38.011  1.00 20.00    -0.263 OA
HETATM    4  C2  RAP  6544     -70.957  20.078  37.272  1.00 20.00     0.187 C 
HETATM    5  C3  RAP  6544     -70.008  19.678  38.392  1.00 20.00     0.035 C 
HETATM    6  C4  RAP  6544     -70.125  20.551  39.633  1.00 20.00     0.004 C 
HETATM    7  C5  RAP  6544     -69.931  21.997  39.214  1.00 20.00     0.020 C 
HETATM    8  C6  RAP  6544     -70.943  22.393  38.184  1.00 20.00     0.127 C 
HETATM    9  N7  RAP  6544     -70.770  21.511  37.020  1.00 20.00    -0.331 N 
HETATM   10  C8  RAP  6544     -70.633  21.969  35.766  1.00 20.00     0.296 C 
HETATM   11  O3  RAP  6544     -70.588  21.145  34.842  1.00 20.00    -0.264 OA
HETATM   12  C9  RAP  6544     -70.459  23.336  35.462  1.00 20.00     0.278 C 
HETATM   13  O4  RAP  6544     -69.318  23.815  35.477  1.00 20.00    -0.281 OA
HETATM   14  C10 RAP  6544     -71.639  24.258  35.105  1.00 20.00     0.238 C 
HETATM   15  O5  RAP  6544     -72.276  24.541  36.330  1.00 20.00    -0.343 OA
HETATM   16  C11 RAP  6544     -72.682  23.593  34.118  1.00 20.00     0.053 C 
HETATM   17  C12 RAP  6544     -73.987  24.419  34.042  1.00 20.00     0.013 C 
HETATM   18  C13 RAP  6544     -74.492  24.747  35.439  1.00 20.00     0.033 C 
HETATM   19  C14 RAP  6544     -73.417  25.320  36.357  1.00 20.00     0.128 C 
HETATM   20  C15 RAP  6544     -73.892  25.265  37.798  1.00 20.00     0.068 C 
HETATM   21  C16 RAP  6544     -75.020  26.215  38.182  1.00 20.00     0.151 C 
HETATM   22  C17 RAP  6544     -75.423  26.036  39.630  1.00 20.00    -0.055 C 
HETATM   23  C18 RAP  6544     -76.632  25.559  39.896  1.00 20.00     0.005 C 
HETATM   24  C19 RAP  6544     -77.155  25.303  41.245  1.00 20.00     0.000 C 
HETATM   25  C20 RAP  6544     -78.401  24.874  41.382  1.00 20.00    -0.000 C 
HETATM   26  C21 RAP  6544     -78.942  24.506  42.704  1.00 20.00    -0.004 C 
HETATM   27  C22 RAP  6544     -80.101  23.889  42.835  1.00 20.00    -0.022 C 
HETATM   28  C23 RAP  6544     -80.655  23.389  44.152  1.00 20.00     0.005 C 
HETATM   29  C24 RAP  6544     -80.921  21.905  43.977  1.00 20.00     0.020 C 
HETATM   30  C25 RAP  6544     -79.777  21.050  43.465  1.00 20.00     0.055 C 
HETATM   31  C26 RAP  6544     -80.295  19.739  42.890  1.00 20.00     0.162 C 
HETATM   32  O8  RAP  6544     -80.487  18.757  43.603  1.00 20.00    -0.295 OA
HETATM   33  C27 RAP  6544     -80.553  19.706  41.387  1.00 20.00     0.223 C 
HETATM   34  C28 RAP  6544     -79.273  19.404  40.542  1.00 20.00     0.183 C 
HETATM   35  C29 RAP  6544     -78.385  20.641  40.306  1.00 20.00    -0.056 C 
HETATM   36  C30 RAP  6544     -77.187  20.794  40.868  1.00 20.00    -0.010 C 
HETATM   37  C31 RAP  6544     -76.165  21.929  40.708  1.00 20.00     0.074 C 
HETATM   38  C32 RAP  6544     -75.034  21.475  39.787  1.00 20.00     0.136 C 
HETATM   39  O11 RAP  6544     -73.927  21.140  40.221  1.00 20.00    -0.297 OA
HETATM   40  C33 RAP  6544     -75.378  21.406  38.303  1.00 20.00     0.112 C 
HETATM   41  C34 RAP  6544     -74.817  20.165  37.639  1.00 20.00     0.142 C 
HETATM   42  C43 RAP  6544     -72.143  23.285  32.691  1.00 20.00     0.016 C 
HETATM   43  C44 RAP  6544     -74.376  26.464  40.672  1.00 20.00     0.046 C 
HETATM   44  C45 RAP  6544     -81.934  24.126  44.521  1.00 20.00     0.014 C 
HETATM   45  C46 RAP  6544     -78.733  20.792  44.555  1.00 20.00     0.018 C 
HETATM   46  C47 RAP  6544     -78.998  21.682  39.387  1.00 20.00     0.046 C 
HETATM   47  C48 RAP  6544     -75.597  22.285  42.092  1.00 20.00     0.022 C 
ENDROOT
BRANCH  41  48
HETATM   48  C35 RAP  6544     -75.432  19.707  36.301  1.00 20.00     0.012 C 
HETATM   49  C49 RAP  6544     -75.540  20.832  35.311  1.00 20.00     0.012 C 
BRANCH  48  50
HETATM   50  C36 RAP  6544     -76.787  19.030  36.491  1.00 20.00     0.011 C 
BRANCH  50  51
HETATM   51  C37 RAP  6544     -76.810  17.714  37.272  1.00 20.00    -0.012 C 
HETATM   52  C38 RAP  6544     -78.253  17.213  37.415  1.00 20.00     0.039 C 
HETATM   53  C39 RAP  6544     -78.366  15.962  38.288  1.00 20.00     0.150 C 
HETATM   54  C40 RAP  6544     -77.393  14.851  37.759  1.00 20.00     0.147 C 
HETATM   55  C41 RAP  6544     -75.946  15.349  37.576  1.00 20.00     0.035 C 
HETATM   56  C42 RAP  6544     -75.908  16.609  36.723  1.00 20.00     0.007 C 
BRANCH  53  57
HETATM   57  O12 RAP  6544     -79.700  15.529  38.193  1.00 20.00    -0.388 OA
HETATM   58  C52 RAP  6544     -80.542  15.869  39.240  1.00 20.00     0.202 C 
ENDBRANCH  53  57
BRANCH  54  59
HETATM   59  O13 RAP  6544     -77.397  13.755  38.672  1.00 20.00    -0.393 OA
ATOM     60  H13 RAP  6544     -76.808  13.082  38.352  1.00  0.00     0.210 HD
ENDBRANCH  54  59
ENDBRANCH  50  51
ENDBRANCH  48  50
ENDBRANCH  41  48
BRANCH  34  61
HETATM   61  O10 RAP  6544     -78.526  18.395  41.235  1.00 20.00    -0.388 OA
ATOM     62  H10 RAP  6544     -77.748  18.211  40.721  1.00  0.00     0.210 HD
ENDBRANCH  34  61
BRANCH  33  63
HETATM   63  O9  RAP  6544     -81.467  18.678  41.111  1.00 20.00    -0.380 OA
HETATM   64  C51 RAP  6544     -82.804  19.036  41.171  1.00 20.00     0.202 C 
ENDBRANCH  33  63
BRANCH  14  65
HETATM   65  O6  RAP  6544     -71.126  25.451  34.504  1.00 20.00    -0.359 OA
ATOM     66  H6  RAP  6544     -70.500  25.850  35.097  1.00  0.00     0.213 HD
ENDBRANCH  14  65
BRANCH  21  67
HETATM   67  O7  RAP  6544     -74.567  27.518  37.985  1.00 20.00    -0.386 OA
HETATM   68  C50 RAP  6544     -75.544  28.487  37.774  1.00 20.00     0.202 C 
ENDBRANCH  21  67
TORSDOF 9
