REMARK  3 active torsions:
REMARK  status: ('A' for Active; 'I' for Inactive)
REMARK    1  A    between atoms: C6_6  and  C8_11 
REMARK    2  A    between atoms: C7_7  and  C8_11 
REMARK    3  A    between atoms: C12_15  and  N2_16 
ROOT
ATOM      1  C2  UNK     1     215.183  75.438 119.088  1.00  0.00     0.033 C 
ATOM      2  C3  UNK     1     215.797  76.337 116.881  1.00  0.00     0.224 C 
ATOM      3  C4  UNK     1     213.641  75.343 117.129  1.00  0.00     0.237 C 
ATOM      4  C5  UNK     1     215.851  76.602 118.365  1.00  0.00     0.105 C 
ATOM      5  O1  UNK     1     216.702  76.716 116.149  1.00  0.00    -0.273 OA
ATOM      6  O2  UNK     1     212.589  75.137 116.543  1.00  0.00    -0.272 OA
ATOM      7  N1  UNK     1     214.732  75.674 116.424  1.00  0.00    -0.297 N 
ATOM      8  C8  UNK     1     213.734  75.214 118.645  1.00  0.00     0.068 C 
ATOM      9  H8  UNK     1     214.751  75.397 115.462  1.00  0.00     0.171 HD
ENDROOT
BRANCH   8  10
ATOM     10  C6  UNK     1     213.433  73.812 119.161  1.00  0.00    -0.040 A 
ATOM     11  C10 UNK     1     213.164  73.618 120.523  1.00  0.00     0.010 A 
ATOM     12  C11 UNK     1     212.910  72.350 121.039  1.00  0.00     0.024 A 
ATOM     13  C12 UNK     1     212.938  71.242 120.208  1.00  0.00     0.005 A 
ATOM     14  C1  UNK     1     213.216  71.408 118.853  1.00  0.00     0.024 A 
ATOM     15  C13 UNK     1     213.468  72.681 118.334  1.00  0.00     0.010 A 
BRANCH  13  16
ATOM     16  N2  UNK     1     212.693  70.019 120.731  1.00  0.00    -0.303 NA
ATOM     17  H14 UNK     1     212.516  70.105 121.711  1.00  0.00     0.124 HD
ATOM     18  H15 UNK     1     211.894  69.618 120.281  1.00  0.00     0.124 HD
ENDBRANCH  13  16
ENDBRANCH   8  10
BRANCH   8  19
ATOM     19  C7  UNK     1     212.867  76.298 119.309  1.00  0.00     0.020 C 
ATOM     20  C9  UNK     1     211.385  76.201 119.041  1.00  0.00     0.006 C 
ENDBRANCH   8  19
TORSDOF 3
