MODEL 1
REMARK VINA RESULT:      -6.3      0.000      0.000
REMARK  9 active torsions:
REMARK  status: ('A' for Active; 'I' for Inactive)
REMARK    1  A    between atoms: C10_14  and  O6_16 
REMARK    2  A    between atoms: C16_23  and  O7_24 
REMARK    3  A    between atoms: C27_36  and  O9_37 
REMARK    4  A    between atoms: C28_38  and  O10_39 
REMARK    5  A    between atoms: C34_47  and  C35_48 
REMARK    6  A    between atoms: C35_48  and  C36_49 
REMARK    7  A    between atoms: C36_49  and  C37_50 
REMARK    8  A    between atoms: C39_52  and  O12_53 
REMARK    9  A    between atoms: C40_54  and  O13_55 
ROOT
HETATM    1  C1  RAP  6544       0.480  30.224 226.889  1.00 20.00     0.282 C 
HETATM    2  O1  RAP  6544      -0.603  30.844 227.571  1.00 20.00    -0.314 OA
HETATM    3  O2  RAP  6544       1.200  29.457 227.527  1.00 20.00    -0.263 OA
HETATM    4  C2  RAP  6544       0.742  30.453 225.402  1.00 20.00     0.187 C 
HETATM    5  C3  RAP  6544       2.224  30.672 225.134  1.00 20.00     0.035 C 
HETATM    6  C4  RAP  6544       2.724  32.047 225.551  1.00 20.00     0.004 C 
HETATM    7  C5  RAP  6544       1.862  33.091 224.864  1.00 20.00     0.020 C 
HETATM    8  C6  RAP  6544       0.420  32.914 225.226  1.00 20.00     0.127 C 
HETATM    9  N7  RAP  6544       0.010  31.569 224.794  1.00 20.00    -0.331 N 
HETATM   10  C8  RAP  6544      -1.077  31.340 224.041  1.00 20.00     0.296 C 
HETATM   11  O3  RAP  6544      -1.392  30.165 223.809  1.00 20.00    -0.264 OA
HETATM   12  C9  RAP  6544      -1.826  32.373 223.438  1.00 20.00     0.278 C 
HETATM   13  O4  RAP  6544      -1.476  32.802 222.331  1.00 20.00    -0.281 OA
HETATM   14  C10 RAP  6544      -3.070  32.986 224.105  1.00 20.00     0.238 C 
HETATM   15  O5  RAP  6544      -2.572  33.840 225.110  1.00 20.00    -0.343 OA
HETATM   16  C11 RAP  6544      -4.027  31.911 224.763  1.00 20.00     0.053 C 
HETATM   17  C12 RAP  6544      -5.076  32.581 225.680  1.00 20.00     0.013 C 
HETATM   18  C13 RAP  6544      -4.404  33.561 226.631  1.00 20.00     0.033 C 
HETATM   19  C14 RAP  6544      -3.444  34.522 225.938  1.00 20.00     0.128 C 
HETATM   20  C15 RAP  6544      -2.556  35.192 226.971  1.00 20.00     0.068 C 
HETATM   21  C16 RAP  6544      -3.226  36.200 227.897  1.00 20.00     0.151 C 
HETATM   22  C17 RAP  6544      -2.243  36.767 228.899  1.00 20.00    -0.055 C 
HETATM   23  C18 RAP  6544      -2.413  36.479 230.183  1.00 20.00     0.005 C 
HETATM   24  C19 RAP  6544      -1.529  36.929 231.268  1.00 20.00     0.000 C 
HETATM   25  C20 RAP  6544      -1.836  36.619 232.519  1.00 20.00    -0.000 C 
HETATM   26  C21 RAP  6544      -0.932  36.958 233.634  1.00 20.00    -0.004 C 
HETATM   27  C22 RAP  6544      -1.118  36.482 234.851  1.00 20.00    -0.022 C 
HETATM   28  C23 RAP  6544      -0.166  36.704 236.006  1.00 20.00     0.005 C 
HETATM   29  C24 RAP  6544       0.227  35.330 236.517  1.00 20.00     0.020 C 
HETATM   30  C25 RAP  6544       0.766  34.340 235.501  1.00 20.00     0.055 C 
HETATM   31  C26 RAP  6544       0.658  32.914 236.024  1.00 20.00     0.162 C 
HETATM   32  O8  RAP  6544       1.539  32.419 236.723  1.00 20.00    -0.295 OA
HETATM   33  C27 RAP  6544      -0.591  32.133 235.628  1.00 20.00     0.223 C 
HETATM   34  C28 RAP  6544      -0.482  31.456 234.223  1.00 20.00     0.183 C 
HETATM   35  C29 RAP  6544      -0.779  32.415 233.053  1.00 20.00    -0.056 C 
HETATM   36  C30 RAP  6544       0.156  32.835 232.202  1.00 20.00    -0.010 C 
HETATM   37  C31 RAP  6544       0.026  33.744 230.971  1.00 20.00     0.074 C 
HETATM   38  C32 RAP  6544       0.072  32.897 229.701  1.00 20.00     0.136 C 
HETATM   39  O11 RAP  6544       1.081  32.830 228.991  1.00 20.00    -0.297 OA
HETATM   40  C33 RAP  6544      -1.188  32.093 229.397  1.00 20.00     0.112 C 
HETATM   41  C34 RAP  6544      -0.875  30.690 228.920  1.00 20.00     0.142 C 
HETATM   42  C43 RAP  6544      -4.713  30.934 223.765  1.00 20.00     0.016 C 
HETATM   43  C44 RAP  6544      -1.139  37.664 228.317  1.00 20.00     0.046 C 
HETATM   44  C45 RAP  6544      -0.826  37.520 237.108  1.00 20.00     0.014 C 
HETATM   45  C46 RAP  6544       2.208  34.667 235.103  1.00 20.00     0.018 C 
HETATM   46  C47 RAP  6544      -2.229  32.854 232.960  1.00 20.00     0.046 C 
HETATM   47  C48 RAP  6544       1.192  34.747 230.969  1.00 20.00     0.022 C 
ENDROOT
BRANCH  41  48
HETATM   48  C35 RAP  6544      -1.983  29.621 229.006  1.00 20.00     0.012 C 
HETATM   49  C49 RAP  6544      -2.837  29.587 227.771  1.00 20.00     0.012 C 
BRANCH  48  50
HETATM   50  C36 RAP  6544      -2.850  29.789 230.251  1.00 20.00     0.011 C 
BRANCH  50  51
HETATM   51  C37 RAP  6544      -4.265  30.337 230.052  1.00 20.00    -0.012 C 
HETATM   52  C38 RAP  6544      -5.241  29.629 231.000  1.00 20.00     0.039 C 
HETATM   53  C39 RAP  6544      -6.697  30.042 230.774  1.00 20.00     0.150 C 
HETATM   54  C40 RAP  6544      -6.825  31.604 230.834  1.00 20.00     0.147 C 
HETATM   55  C41 RAP  6544      -5.826  32.331 229.913  1.00 20.00     0.035 C 
HETATM   56  C42 RAP  6544      -4.403  31.855 230.170  1.00 20.00     0.007 C 
BRANCH  53  57
HETATM   57  O12 RAP  6544      -7.444  29.450 231.807  1.00 20.00    -0.388 OA
HETATM   58  C52 RAP  6544      -6.946  29.584 233.093  1.00 20.00     0.202 C 
ENDBRANCH  53  57
BRANCH  54  59
HETATM   59  O13 RAP  6544      -8.153  31.977 230.468  1.00 20.00    -0.393 OA
ATOM     60  H13 RAP  6544      -8.488  31.353 229.836  1.00  0.00     0.210 HD
ENDBRANCH  54  59
ENDBRANCH  50  51
ENDBRANCH  48  50
ENDBRANCH  41  48
BRANCH  34  61
HETATM   61  O10 RAP  6544       0.847  30.933 234.096  1.00 20.00    -0.388 OA
ATOM     62  H10 RAP  6544       1.451  31.619 234.358  1.00  0.00     0.210 HD
ENDBRANCH  34  61
BRANCH  33  63
HETATM   63  O9  RAP  6544      -0.786  31.100 236.556  1.00 20.00    -0.380 OA
HETATM   64  C51 RAP  6544      -2.102  30.870 236.924  1.00 20.00     0.202 C 
ENDBRANCH  33  63
BRANCH  14  65
HETATM   65  O6  RAP  6544      -3.804  33.722 223.122  1.00 20.00    -0.359 OA
ATOM     66  H6  RAP  6544      -3.512  33.457 222.257  1.00  0.00     0.213 HD
ENDBRANCH  14  65
BRANCH  21  67
HETATM   67  O7  RAP  6544      -3.731  37.233 227.109  1.00 20.00    -0.386 OA
HETATM   68  C50 RAP  6544      -5.116  37.286 226.974  1.00 20.00     0.202 C 
ENDBRANCH  21  67
TORSDOF 9
ENDMDL
MODEL 2
REMARK VINA RESULT:      -5.9      2.561      6.053
REMARK  9 active torsions:
REMARK  status: ('A' for Active; 'I' for Inactive)
REMARK    1  A    between atoms: C10_14  and  O6_16 
REMARK    2  A    between atoms: C16_23  and  O7_24 
REMARK    3  A    between atoms: C27_36  and  O9_37 
REMARK    4  A    between atoms: C28_38  and  O10_39 
REMARK    5  A    between atoms: C34_47  and  C35_48 
REMARK    6  A    between atoms: C35_48  and  C36_49 
REMARK    7  A    between atoms: C36_49  and  C37_50 
REMARK    8  A    between atoms: C39_52  and  O12_53 
REMARK    9  A    between atoms: C40_54  and  O13_55 
ROOT
HETATM    1  C1  RAP  6544      -3.456  34.230 225.899  1.00 20.00     0.282 C 
HETATM    2  O1  RAP  6544      -3.719  33.235 226.879  1.00 20.00    -0.314 OA
HETATM    3  O2  RAP  6544      -2.306  34.654 225.802  1.00 20.00    -0.263 OA
HETATM    4  C2  RAP  6544      -4.539  34.748 224.956  1.00 20.00     0.187 C 
HETATM    5  C3  RAP  6544      -4.476  36.263 224.827  1.00 20.00     0.035 C 
HETATM    6  C4  RAP  6544      -5.019  37.003 226.041  1.00 20.00     0.004 C 
HETATM    7  C5  RAP  6544      -6.433  36.514 226.298  1.00 20.00     0.020 C 
HETATM    8  C6  RAP  6544      -6.452  35.034 226.522  1.00 20.00     0.127 C 
HETATM    9  N7  RAP  6544      -5.916  34.389 225.313  1.00 20.00    -0.331 N 
HETATM   10  C8  RAP  6544      -6.550  33.399 224.667  1.00 20.00     0.296 C 
HETATM   11  O3  RAP  6544      -5.974  32.856 223.714  1.00 20.00    -0.264 OA
HETATM   12  C9  RAP  6544      -7.870  33.004 224.973  1.00 20.00     0.278 C 
HETATM   13  O4  RAP  6544      -8.815  33.597 224.438  1.00 20.00    -0.281 OA
HETATM   14  C10 RAP  6544      -8.182  31.853 225.947  1.00 20.00     0.238 C 
HETATM   15  O5  RAP  6544      -7.970  32.385 227.234  1.00 20.00    -0.343 OA
HETATM   16  C11 RAP  6544      -7.251  30.589 225.747  1.00 20.00     0.053 C 
HETATM   17  C12 RAP  6544      -7.382  29.603 226.931  1.00 20.00     0.013 C 
HETATM   18  C13 RAP  6544      -7.248  30.340 228.255  1.00 20.00     0.033 C 
HETATM   19  C14 RAP  6544      -8.122  31.586 228.351  1.00 20.00     0.128 C 
HETATM   20  C15 RAP  6544      -7.660  32.448 229.513  1.00 20.00     0.068 C 
HETATM   21  C16 RAP  6544      -7.920  31.904 230.912  1.00 20.00     0.151 C 
HETATM   22  C17 RAP  6544      -7.381  32.837 231.975  1.00 20.00    -0.055 C 
HETATM   23  C18 RAP  6544      -6.368  32.424 232.726  1.00 20.00     0.005 C 
HETATM   24  C19 RAP  6544      -5.720  33.223 233.775  1.00 20.00     0.000 C 
HETATM   25  C20 RAP  6544      -4.750  32.677 234.494  1.00 20.00    -0.000 C 
HETATM   26  C21 RAP  6544      -3.999  33.466 235.488  1.00 20.00    -0.004 C 
HETATM   27  C22 RAP  6544      -2.905  33.002 236.063  1.00 20.00    -0.022 C 
HETATM   28  C23 RAP  6544      -2.033  33.804 237.004  1.00 20.00     0.005 C 
HETATM   29  C24 RAP  6544      -0.633  33.791 236.419  1.00 20.00     0.020 C 
HETATM   30  C25 RAP  6544      -0.481  34.226 234.973  1.00 20.00     0.055 C 
HETATM   31  C26 RAP  6544       0.830  33.717 234.389  1.00 20.00     0.162 C 
HETATM   32  O8  RAP  6544       1.876  34.350 234.513  1.00 20.00    -0.295 OA
HETATM   33  C27 RAP  6544       0.775  32.391 233.637  1.00 20.00     0.223 C 
HETATM   34  C28 RAP  6544       0.334  32.540 232.144  1.00 20.00     0.183 C 
HETATM   35  C29 RAP  6544      -1.192  32.644 231.960  1.00 20.00    -0.056 C 
HETATM   36  C30 RAP  6544      -1.804  33.763 231.574  1.00 20.00    -0.010 C 
HETATM   37  C31 RAP  6544      -3.292  34.024 231.302  1.00 20.00     0.074 C 
HETATM   38  C32 RAP  6544      -3.541  34.054 229.795  1.00 20.00     0.136 C 
HETATM   39  O11 RAP  6544      -3.700  35.111 229.176  1.00 20.00    -0.297 OA
HETATM   40  C33 RAP  6544      -3.522  32.699 229.096  1.00 20.00     0.112 C 
HETATM   41  C34 RAP  6544      -2.783  32.744 227.774  1.00 20.00     0.142 C 
HETATM   42  C43 RAP  6544      -7.422  29.845 224.391  1.00 20.00     0.016 C 
HETATM   43  C44 RAP  6544      -8.099  34.191 232.101  1.00 20.00     0.046 C 
HETATM   44  C45 RAP  6544      -2.038  33.200 238.401  1.00 20.00     0.014 C 
HETATM   45  C46 RAP  6544      -0.589  35.746 234.826  1.00 20.00     0.018 C 
HETATM   46  C47 RAP  6544      -1.946  31.364 232.271  1.00 20.00     0.046 C 
HETATM   47  C48 RAP  6544      -3.679  35.378 231.920  1.00 20.00     0.022 C 
ENDROOT
BRANCH  41  48
HETATM   48  C35 RAP  6544      -2.279  31.418 227.170  1.00 20.00     0.012 C 
HETATM   49  C49 RAP  6544      -3.082  30.238 227.640  1.00 20.00     0.012 C 
BRANCH  48  50
HETATM   50  C36 RAP  6544      -0.792  31.193 227.434  1.00 20.00     0.011 C 
BRANCH  50  51
HETATM   51  C37 RAP  6544       0.153  32.365 227.166  1.00 20.00    -0.012 C 
HETATM   52  C38 RAP  6544       0.024  33.411 228.281  1.00 20.00     0.039 C 
HETATM   53  C39 RAP  6544       0.854  34.669 228.018  1.00 20.00     0.150 C 
HETATM   54  C40 RAP  6544       2.345  34.276 227.731  1.00 20.00     0.147 C 
HETATM   55  C41 RAP  6544       2.489  33.200 226.638  1.00 20.00     0.035 C 
HETATM   56  C42 RAP  6544       1.619  31.990 226.946  1.00 20.00     0.007 C 
BRANCH  53  57
HETATM   57  O12 RAP  6544       0.769  35.452 229.182  1.00 20.00    -0.388 OA
HETATM   58  C52 RAP  6544      -0.352  36.255 229.314  1.00 20.00     0.202 C 
ENDBRANCH  53  57
BRANCH  54  59
HETATM   59  O13 RAP  6544       3.066  35.442 227.337  1.00 20.00    -0.393 OA
ATOM     60  H13 RAP  6544       2.484  36.021 226.860  1.00  0.00     0.210 HD
ENDBRANCH  54  59
ENDBRANCH  50  51
ENDBRANCH  48  50
ENDBRANCH  41  48
BRANCH  34  61
HETATM   61  O10 RAP  6544       0.967  33.716 231.622  1.00 20.00    -0.388 OA
ATOM     62  H10 RAP  6544       0.905  33.677 230.674  1.00  0.00     0.210 HD
ENDBRANCH  34  61
BRANCH  33  63
HETATM   63  O9  RAP  6544       2.061  31.831 233.621  1.00 20.00    -0.380 OA
HETATM   64  C51 RAP  6544       2.341  30.950 234.653  1.00 20.00     0.202 C 
ENDBRANCH  33  63
BRANCH  14  65
HETATM   65  O6  RAP  6544      -9.546  31.457 225.771  1.00 20.00    -0.359 OA
ATOM     66  H6  RAP  6544      -9.849  31.035 226.567  1.00  0.00     0.213 HD
ENDBRANCH  14  65
BRANCH  21  67
HETATM   67  O7  RAP  6544      -9.298  31.769 231.069  1.00 20.00    -0.386 OA
HETATM   68  C50 RAP  6544      -9.731  30.683 231.824  1.00 20.00     0.202 C 
ENDBRANCH  21  67
TORSDOF 9
ENDMDL
MODEL 3
REMARK VINA RESULT:      -5.8      2.847     10.252
REMARK  9 active torsions:
REMARK  status: ('A' for Active; 'I' for Inactive)
REMARK    1  A    between atoms: C10_14  and  O6_16 
REMARK    2  A    between atoms: C16_23  and  O7_24 
REMARK    3  A    between atoms: C27_36  and  O9_37 
REMARK    4  A    between atoms: C28_38  and  O10_39 
REMARK    5  A    between atoms: C34_47  and  C35_48 
REMARK    6  A    between atoms: C35_48  and  C36_49 
REMARK    7  A    between atoms: C36_49  and  C37_50 
REMARK    8  A    between atoms: C39_52  and  O12_53 
REMARK    9  A    between atoms: C40_54  and  O13_55 
ROOT
HETATM    1  C1  RAP  6544       0.397  32.664 230.407  1.00 20.00     0.282 C 
HETATM    2  O1  RAP  6544      -0.774  33.470 230.436  1.00 20.00    -0.314 OA
HETATM    3  O2  RAP  6544       1.087  32.686 229.390  1.00 20.00    -0.263 OA
HETATM    4  C2  RAP  6544       0.830  31.817 231.602  1.00 20.00     0.187 C 
HETATM    5  C3  RAP  6544       1.275  30.431 231.159  1.00 20.00     0.035 C 
HETATM    6  C4  RAP  6544       0.123  29.511 230.780  1.00 20.00     0.004 C 
HETATM    7  C5  RAP  6544      -0.839  29.451 231.952  1.00 20.00     0.020 C 
HETATM    8  C6  RAP  6544      -1.339  30.819 232.302  1.00 20.00     0.127 C 
HETATM    9  N7  RAP  6544      -0.176  31.646 232.656  1.00 20.00    -0.331 N 
HETATM   10  C8  RAP  6544      -0.101  32.360 233.790  1.00 20.00     0.296 C 
HETATM   11  O3  RAP  6544       0.879  33.100 233.953  1.00 20.00    -0.264 OA
HETATM   12  C9  RAP  6544      -1.043  32.245 234.834  1.00 20.00     0.278 C 
HETATM   13  O4  RAP  6544      -0.887  31.366 235.691  1.00 20.00    -0.281 OA
HETATM   14  C10 RAP  6544      -2.261  33.178 234.952  1.00 20.00     0.238 C 
HETATM   15  O5  RAP  6544      -3.177  32.722 233.983  1.00 20.00    -0.343 OA
HETATM   16  C11 RAP  6544      -1.920  34.698 234.670  1.00 20.00     0.053 C 
HETATM   17  C12 RAP  6544      -3.206  35.537 234.488  1.00 20.00     0.013 C 
HETATM   18  C13 RAP  6544      -4.147  34.861 233.503  1.00 20.00     0.033 C 
HETATM   19  C14 RAP  6544      -4.377  33.382 233.795  1.00 20.00     0.128 C 
HETATM   20  C15 RAP  6544      -5.003  32.712 232.584  1.00 20.00     0.068 C 
HETATM   21  C16 RAP  6544      -6.446  33.087 232.268  1.00 20.00     0.151 C 
HETATM   22  C17 RAP  6544      -6.938  32.381 231.022  1.00 20.00    -0.055 C 
HETATM   23  C18 RAP  6544      -7.215  33.110 229.949  1.00 20.00     0.005 C 
HETATM   24  C19 RAP  6544      -7.673  32.569 228.662  1.00 20.00     0.000 C 
HETATM   25  C20 RAP  6544      -7.967  33.408 227.679  1.00 20.00    -0.000 C 
HETATM   26  C21 RAP  6544      -8.333  32.915 226.338  1.00 20.00    -0.004 C 
HETATM   27  C22 RAP  6544      -8.430  33.725 225.301  1.00 20.00    -0.022 C 
HETATM   28  C23 RAP  6544      -8.692  33.265 223.883  1.00 20.00     0.005 C 
HETATM   29  C24 RAP  6544      -7.552  33.797 223.034  1.00 20.00     0.020 C 
HETATM   30  C25 RAP  6544      -6.140  33.487 223.495  1.00 20.00     0.055 C 
HETATM   31  C26 RAP  6544      -5.141  34.449 222.867  1.00 20.00     0.162 C 
HETATM   32  O8  RAP  6544      -4.648  34.232 221.763  1.00 20.00    -0.295 OA
HETATM   33  C27 RAP  6544      -4.779  35.686 223.682  1.00 20.00     0.223 C 
HETATM   34  C28 RAP  6544      -3.652  35.431 224.735  1.00 20.00     0.183 C 
HETATM   35  C29 RAP  6544      -4.162  34.790 226.039  1.00 20.00    -0.056 C 
HETATM   36  C30 RAP  6544      -3.879  33.537 226.394  1.00 20.00    -0.010 C 
HETATM   37  C31 RAP  6544      -4.264  32.765 227.664  1.00 20.00     0.074 C 
HETATM   38  C32 RAP  6544      -3.062  32.689 228.603  1.00 20.00     0.136 C 
HETATM   39  O11 RAP  6544      -2.383  31.663 228.721  1.00 20.00    -0.297 OA
HETATM   40  C33 RAP  6544      -2.717  33.979 229.340  1.00 20.00     0.112 C 
HETATM   41  C34 RAP  6544      -1.225  34.240 229.377  1.00 20.00     0.142 C 
HETATM   42  C43 RAP  6544      -0.969  35.368 235.704  1.00 20.00     0.016 C 
HETATM   43  C44 RAP  6544      -7.101  30.856 231.139  1.00 20.00     0.046 C 
HETATM   44  C45 RAP  6544     -10.029  33.787 223.378  1.00 20.00     0.014 C 
HETATM   45  C46 RAP  6544      -5.756  32.034 223.200  1.00 20.00     0.018 C 
HETATM   46  C47 RAP  6544      -5.031  35.703 226.885  1.00 20.00     0.046 C 
HETATM   47  C48 RAP  6544      -4.704  31.345 227.268  1.00 20.00     0.022 C 
ENDROOT
BRANCH  41  48
HETATM   48  C35 RAP  6544      -0.738  35.675 229.662  1.00 20.00     0.012 C 
HETATM   49  C49 RAP  6544      -1.645  36.404 230.613  1.00 20.00     0.012 C 
BRANCH  48  50
HETATM   50  C36 RAP  6544      -0.545  36.483 228.382  1.00 20.00     0.011 C 
BRANCH  50  51
HETATM   51  C37 RAP  6544      -0.532  38.008 228.510  1.00 20.00    -0.012 C 
HETATM   52  C38 RAP  6544       0.648  38.592 227.723  1.00 20.00     0.039 C 
HETATM   53  C39 RAP  6544       0.795  40.104 227.903  1.00 20.00     0.150 C 
HETATM   54  C40 RAP  6544      -0.562  40.817 227.569  1.00 20.00     0.147 C 
HETATM   55  C41 RAP  6544      -1.764  40.218 228.326  1.00 20.00     0.035 C 
HETATM   56  C42 RAP  6544      -1.835  38.710 228.128  1.00 20.00     0.007 C 
BRANCH  53  57
HETATM   57  O12 RAP  6544       1.797  40.516 227.007  1.00 20.00    -0.388 OA
HETATM   58  C52 RAP  6544       3.073  40.667 227.525  1.00 20.00     0.202 C 
ENDBRANCH  53  57
BRANCH  54  59
HETATM   59  O13 RAP  6544      -0.452  42.202 227.890  1.00 20.00    -0.393 OA
ATOM     60  H13 RAP  6544       0.427  42.379 228.204  1.00  0.00     0.210 HD
ENDBRANCH  54  59
ENDBRANCH  50  51
ENDBRANCH  48  50
ENDBRANCH  41  48
BRANCH  34  61
HETATM   61  O10 RAP  6544      -2.675  34.577 224.123  1.00 20.00    -0.388 OA
ATOM     62  H10 RAP  6544      -3.077  33.724 224.003  1.00  0.00     0.210 HD
ENDBRANCH  34  61
BRANCH  33  63
HETATM   63  O9  RAP  6544      -4.295  36.673 222.809  1.00 20.00    -0.380 OA
HETATM   64  C51 RAP  6544      -4.647  37.975 223.126  1.00 20.00     0.202 C 
ENDBRANCH  33  63
BRANCH  14  65
HETATM   65  O6  RAP  6544      -2.805  33.061 236.270  1.00 20.00    -0.359 OA
ATOM     66  H6  RAP  6544      -2.092  33.049 236.898  1.00  0.00     0.213 HD
ENDBRANCH  14  65
BRANCH  21  67
HETATM   67  O7  RAP  6544      -7.234  32.712 233.354  1.00 20.00    -0.386 OA
HETATM   68  C50 RAP  6544      -8.074  33.692 233.877  1.00 20.00     0.202 C 
ENDBRANCH  21  67
TORSDOF 9
ENDMDL
MODEL 4
REMARK VINA RESULT:      -5.7      2.441      6.575
REMARK  9 active torsions:
REMARK  status: ('A' for Active; 'I' for Inactive)
REMARK    1  A    between atoms: C10_14  and  O6_16 
REMARK    2  A    between atoms: C16_23  and  O7_24 
REMARK    3  A    between atoms: C27_36  and  O9_37 
REMARK    4  A    between atoms: C28_38  and  O10_39 
REMARK    5  A    between atoms: C34_47  and  C35_48 
REMARK    6  A    between atoms: C35_48  and  C36_49 
REMARK    7  A    between atoms: C36_49  and  C37_50 
REMARK    8  A    between atoms: C39_52  and  O12_53 
REMARK    9  A    between atoms: C40_54  and  O13_55 
ROOT
HETATM    1  C1  RAP  6544       0.087  34.778 230.396  1.00 20.00     0.282 C 
HETATM    2  O1  RAP  6544      -0.491  33.508 230.672  1.00 20.00    -0.314 OA
HETATM    3  O2  RAP  6544       0.949  35.199 231.165  1.00 20.00    -0.263 OA
HETATM    4  C2  RAP  6544      -0.303  35.598 229.168  1.00 20.00     0.187 C 
HETATM    5  C3  RAP  6544      -0.495  37.064 229.527  1.00 20.00     0.035 C 
HETATM    6  C4  RAP  6544      -1.794  37.346 230.268  1.00 20.00     0.004 C 
HETATM    7  C5  RAP  6544      -2.942  36.812 229.432  1.00 20.00     0.020 C 
HETATM    8  C6  RAP  6544      -2.778  35.345 229.179  1.00 20.00     0.127 C 
HETATM    9  N7  RAP  6544      -1.508  35.150 228.463  1.00 20.00    -0.331 N 
HETATM   10  C8  RAP  6544      -1.408  34.448 227.324  1.00 20.00     0.296 C 
HETATM   11  O3  RAP  6544      -0.280  34.261 226.847  1.00 20.00    -0.264 OA
HETATM   12  C9  RAP  6544      -2.531  33.983 226.606  1.00 20.00     0.278 C 
HETATM   13  O4  RAP  6544      -3.072  34.733 225.783  1.00 20.00    -0.281 OA
HETATM   14  C10 RAP  6544      -3.110  32.571 226.805  1.00 20.00     0.238 C 
HETATM   15  O5  RAP  6544      -3.823  32.626 228.020  1.00 20.00    -0.343 OA
HETATM   16  C11 RAP  6544      -2.003  31.444 226.903  1.00 20.00     0.053 C 
HETATM   17  C12 RAP  6544      -2.601  30.113 227.412  1.00 20.00     0.013 C 
HETATM   18  C13 RAP  6544      -3.439  30.348 228.660  1.00 20.00     0.033 C 
HETATM   19  C14 RAP  6544      -4.437  31.493 228.518  1.00 20.00     0.128 C 
HETATM   20  C15 RAP  6544      -4.949  31.899 229.889  1.00 20.00     0.068 C 
HETATM   21  C16 RAP  6544      -5.868  30.909 230.594  1.00 20.00     0.151 C 
HETATM   22  C17 RAP  6544      -6.278  31.415 231.961  1.00 20.00    -0.055 C 
HETATM   23  C18 RAP  6544      -5.851  30.759 233.033  1.00 20.00     0.005 C 
HETATM   24  C19 RAP  6544      -6.139  31.144 234.421  1.00 20.00     0.000 C 
HETATM   25  C20 RAP  6544      -5.698  30.375 235.407  1.00 20.00    -0.000 C 
HETATM   26  C21 RAP  6544      -5.872  30.767 236.818  1.00 20.00    -0.004 C 
HETATM   27  C22 RAP  6544      -5.267  30.125 237.799  1.00 20.00    -0.022 C 
HETATM   28  C23 RAP  6544      -5.318  30.547 239.252  1.00 20.00     0.005 C 
HETATM   29  C24 RAP  6544      -3.880  30.723 239.705  1.00 20.00     0.020 C 
HETATM   30  C25 RAP  6544      -2.994  31.627 238.867  1.00 20.00     0.055 C 
HETATM   31  C26 RAP  6544      -1.523  31.339 239.130  1.00 20.00     0.162 C 
HETATM   32  O8  RAP  6544      -0.918  31.881 240.052  1.00 20.00    -0.295 OA
HETATM   33  C27 RAP  6544      -0.840  30.353 238.188  1.00 20.00     0.223 C 
HETATM   34  C28 RAP  6544      -0.326  31.010 236.866  1.00 20.00     0.183 C 
HETATM   35  C29 RAP  6544      -1.424  31.184 235.798  1.00 20.00    -0.056 C 
HETATM   36  C30 RAP  6544      -1.904  32.373 235.436  1.00 20.00    -0.010 C 
HETATM   37  C31 RAP  6544      -2.953  32.725 234.372  1.00 20.00     0.074 C 
HETATM   38  C32 RAP  6544      -2.257  33.274 233.127  1.00 20.00     0.136 C 
HETATM   39  O11 RAP  6544      -2.235  34.480 232.864  1.00 20.00    -0.297 OA
HETATM   40  C33 RAP  6544      -1.542  32.242 232.262  1.00 20.00     0.112 C 
HETATM   41  C34 RAP  6544      -0.192  32.732 231.778  1.00 20.00     0.142 C 
HETATM   42  C43 RAP  6544      -1.174  31.213 225.606  1.00 20.00     0.016 C 
HETATM   43  C44 RAP  6544      -7.194  32.650 231.968  1.00 20.00     0.046 C 
HETATM   44  C45 RAP  6544      -6.025  29.499 240.099  1.00 20.00     0.014 C 
HETATM   45  C46 RAP  6544      -3.311  33.106 239.106  1.00 20.00     0.018 C 
HETATM   46  C47 RAP  6544      -1.925  29.882 235.201  1.00 20.00     0.046 C 
HETATM   47  C48 RAP  6544      -3.906  33.788 234.945  1.00 20.00     0.022 C 
ENDROOT
BRANCH  41  48
HETATM   48  C35 RAP  6544       0.837  31.690 231.296  1.00 20.00     0.012 C 
HETATM   49  C49 RAP  6544       0.260  30.752 230.274  1.00 20.00     0.012 C 
BRANCH  48  50
HETATM   50  C36 RAP  6544       1.450  30.906 232.454  1.00 20.00     0.011 C 
BRANCH  50  51
HETATM   51  C37 RAP  6544       2.339  31.678 233.431  1.00 20.00    -0.012 C 
HETATM   52  C38 RAP  6544       1.549  32.833 234.061  1.00 20.00     0.039 C 
HETATM   53  C39 RAP  6544       2.409  33.723 234.960  1.00 20.00     0.150 C 
HETATM   54  C40 RAP  6544       3.149  32.847 236.030  1.00 20.00     0.147 C 
HETATM   55  C41 RAP  6544       3.919  31.661 235.415  1.00 20.00     0.035 C 
HETATM   56  C42 RAP  6544       3.014  30.835 234.512  1.00 20.00     0.007 C 
BRANCH  53  57
HETATM   57  O12 RAP  6544       1.529  34.622 235.589  1.00 20.00    -0.388 OA
HETATM   58  C52 RAP  6544       0.548  35.193 234.794  1.00 20.00     0.202 C 
ENDBRANCH  53  57
BRANCH  54  59
HETATM   59  O13 RAP  6544       4.061  33.669 236.755  1.00 20.00    -0.393 OA
ATOM     60  H13 RAP  6544       4.282  34.428 236.228  1.00  0.00     0.210 HD
ENDBRANCH  54  59
ENDBRANCH  50  51
ENDBRANCH  48  50
ENDBRANCH  41  48
BRANCH  34  61
HETATM   61  O10 RAP  6544       0.228  32.288 237.205  1.00 20.00    -0.388 OA
ATOM     62  H10 RAP  6544       1.154  32.161 237.379  1.00  0.00     0.210 HD
ENDBRANCH  34  61
BRANCH  33  63
HETATM   63  O9  RAP  6544       0.286  29.821 238.834  1.00 20.00    -0.380 OA
HETATM   64  C51 RAP  6544       1.331  29.450 238.004  1.00 20.00     0.202 C 
ENDBRANCH  33  63
BRANCH  14  65
HETATM   65  O6  RAP  6544      -3.981  32.272 225.710  1.00 20.00    -0.359 OA
ATOM     66  H6  RAP  6544      -4.837  32.040 226.052  1.00  0.00     0.213 HD
ENDBRANCH  14  65
BRANCH  21  67
HETATM   67  O7  RAP  6544      -7.003  30.741 229.804  1.00 20.00    -0.386 OA
HETATM   68  C50 RAP  6544      -7.250  29.451 229.343  1.00 20.00     0.202 C 
ENDBRANCH  21  67
TORSDOF 9
ENDMDL
MODEL 5
REMARK VINA RESULT:      -5.5      2.465      6.192
REMARK  9 active torsions:
REMARK  status: ('A' for Active; 'I' for Inactive)
REMARK    1  A    between atoms: C10_14  and  O6_16 
REMARK    2  A    between atoms: C16_23  and  O7_24 
REMARK    3  A    between atoms: C27_36  and  O9_37 
REMARK    4  A    between atoms: C28_38  and  O10_39 
REMARK    5  A    between atoms: C34_47  and  C35_48 
REMARK    6  A    between atoms: C35_48  and  C36_49 
REMARK    7  A    between atoms: C36_49  and  C37_50 
REMARK    8  A    between atoms: C39_52  and  O12_53 
REMARK    9  A    between atoms: C40_54  and  O13_55 
ROOT
HETATM    1  C1  RAP  6544      -3.311  34.155 225.994  1.00 20.00     0.282 C 
HETATM    2  O1  RAP  6544      -3.575  33.137 226.951  1.00 20.00    -0.314 OA
HETATM    3  O2  RAP  6544      -2.165  34.597 225.923  1.00 20.00    -0.263 OA
HETATM    4  C2  RAP  6544      -4.386  34.674 225.042  1.00 20.00     0.187 C 
HETATM    5  C3  RAP  6544      -4.343  36.191 224.942  1.00 20.00     0.035 C 
HETATM    6  C4  RAP  6544      -4.918  36.900 226.159  1.00 20.00     0.004 C 
HETATM    7  C5  RAP  6544      -6.328  36.386 226.384  1.00 20.00     0.020 C 
HETATM    8  C6  RAP  6544      -6.328  34.901 226.580  1.00 20.00     0.127 C 
HETATM    9  N7  RAP  6544      -5.763  34.287 225.370  1.00 20.00    -0.331 N 
HETATM   10  C8  RAP  6544      -6.371  33.299 224.695  1.00 20.00     0.296 C 
HETATM   11  O3  RAP  6544      -5.770  32.783 223.742  1.00 20.00    -0.264 OA
HETATM   12  C9  RAP  6544      -7.689  32.879 224.971  1.00 20.00     0.278 C 
HETATM   13  O4  RAP  6544      -8.634  33.468 224.431  1.00 20.00    -0.281 OA
HETATM   14  C10 RAP  6544      -7.999  31.705 225.919  1.00 20.00     0.238 C 
HETATM   15  O5  RAP  6544      -7.817  32.217 227.219  1.00 20.00    -0.343 OA
HETATM   16  C11 RAP  6544      -7.045  30.460 225.712  1.00 20.00     0.053 C 
HETATM   17  C12 RAP  6544      -7.181  29.450 226.875  1.00 20.00     0.013 C 
HETATM   18  C13 RAP  6544      -7.080  30.165 228.215  1.00 20.00     0.033 C 
HETATM   19  C14 RAP  6544      -7.975  31.395 228.319  1.00 20.00     0.128 C 
HETATM   20  C15 RAP  6544      -7.545  32.242 229.503  1.00 20.00     0.068 C 
HETATM   21  C16 RAP  6544      -7.820  31.669 230.888  1.00 20.00     0.151 C 
HETATM   22  C17 RAP  6544      -7.313  32.591 231.977  1.00 20.00    -0.055 C 
HETATM   23  C18 RAP  6544      -6.307  32.179 232.737  1.00 20.00     0.005 C 
HETATM   24  C19 RAP  6544      -5.689  32.968 233.811  1.00 20.00     0.000 C 
HETATM   25  C20 RAP  6544      -4.722  32.424 234.536  1.00 20.00    -0.000 C 
HETATM   26  C21 RAP  6544      -4.000  33.205 235.557  1.00 20.00    -0.004 C 
HETATM   27  C22 RAP  6544      -2.909  32.748 236.141  1.00 20.00    -0.022 C 
HETATM   28  C23 RAP  6544      -2.065  33.546 237.112  1.00 20.00     0.005 C 
HETATM   29  C24 RAP  6544      -0.655  33.565 236.550  1.00 20.00     0.020 C 
HETATM   30  C25 RAP  6544      -0.486  34.028 235.115  1.00 20.00     0.055 C 
HETATM   31  C26 RAP  6544       0.842  33.551 234.544  1.00 20.00     0.162 C 
HETATM   32  O8  RAP  6544       1.876  34.197 234.697  1.00 20.00    -0.295 OA
HETATM   33  C27 RAP  6544       0.820  32.238 233.767  1.00 20.00     0.223 C 
HETATM   34  C28 RAP  6544       0.402  32.407 232.270  1.00 20.00     0.183 C 
HETATM   35  C29 RAP  6544      -1.123  32.491 232.062  1.00 20.00    -0.056 C 
HETATM   36  C30 RAP  6544      -1.745  33.608 231.686  1.00 20.00    -0.010 C 
HETATM   37  C31 RAP  6544      -3.233  33.852 231.394  1.00 20.00     0.074 C 
HETATM   38  C32 RAP  6544      -3.457  33.906 229.884  1.00 20.00     0.136 C 
HETATM   39  O11 RAP  6544      -3.622  34.971 229.281  1.00 20.00    -0.297 OA
HETATM   40  C33 RAP  6544      -3.406  32.564 229.160  1.00 20.00     0.112 C 
HETATM   41  C34 RAP  6544      -2.646  32.645 227.852  1.00 20.00     0.142 C 
HETATM   42  C43 RAP  6544      -7.183  29.738 224.340  1.00 20.00     0.016 C 
HETATM   43  C44 RAP  6544      -8.054  33.931 232.115  1.00 20.00     0.046 C 
HETATM   44  C45 RAP  6544      -2.084  32.916 238.497  1.00 20.00     0.014 C 
HETATM   45  C46 RAP  6544      -0.616  35.549 234.994  1.00 20.00     0.018 C 
HETATM   46  C47 RAP  6544      -1.862  31.194 232.338  1.00 20.00     0.046 C 
HETATM   47  C48 RAP  6544      -3.651  35.188 232.030  1.00 20.00     0.022 C 
ENDROOT
BRANCH  41  48
HETATM   48  C35 RAP  6544      -2.111  31.338 227.233  1.00 20.00     0.012 C 
HETATM   49  C49 RAP  6544      -2.958  30.150 227.594  1.00 20.00     0.012 C 
BRANCH  48  50
HETATM   50  C36 RAP  6544      -0.650  31.083 227.596  1.00 20.00     0.011 C 
BRANCH  50  51
HETATM   51  C37 RAP  6544       0.416  31.746 226.720  1.00 20.00    -0.012 C 
HETATM   52  C38 RAP  6544      -0.064  31.805 225.264  1.00 20.00     0.039 C 
HETATM   53  C39 RAP  6544       1.000  32.348 224.308  1.00 20.00     0.150 C 
HETATM   54  C40 RAP  6544       1.528  33.732 224.824  1.00 20.00     0.147 C 
HETATM   55  C41 RAP  6544       1.980  33.697 226.297  1.00 20.00     0.035 C 
HETATM   56  C42 RAP  6544       0.888  33.122 227.188  1.00 20.00     0.007 C 
BRANCH  53  57
HETATM   57  O12 RAP  6544       0.373  32.499 223.059  1.00 20.00    -0.388 OA
HETATM   58  C52 RAP  6544      -0.812  33.218 223.039  1.00 20.00     0.202 C 
ENDBRANCH  53  57
BRANCH  54  59
HETATM   59  O13 RAP  6544       2.623  34.146 224.010  1.00 20.00    -0.393 OA
ATOM     60  H13 RAP  6544       2.545  33.740 223.155  1.00  0.00     0.210 HD
ENDBRANCH  54  59
ENDBRANCH  50  51
ENDBRANCH  48  50
ENDBRANCH  41  48
BRANCH  34  61
HETATM   61  O10 RAP  6544       1.025  33.602 231.780  1.00 20.00    -0.388 OA
ATOM     62  H10 RAP  6544       1.834  33.722 232.264  1.00  0.00     0.210 HD
ENDBRANCH  34  61
BRANCH  33  63
HETATM   63  O9  RAP  6544       2.114  31.697 233.762  1.00 20.00    -0.380 OA
HETATM   64  C51 RAP  6544       2.387  30.792 234.776  1.00 20.00     0.202 C 
ENDBRANCH  33  63
BRANCH  14  65
HETATM   65  O6  RAP  6544      -9.353  31.293 225.713  1.00 20.00    -0.359 OA
ATOM     66  H6  RAP  6544      -9.571  30.622 226.350  1.00  0.00     0.213 HD
ENDBRANCH  14  65
BRANCH  21  67
HETATM   67  O7  RAP  6544      -9.198  31.511 231.020  1.00 20.00    -0.386 OA
HETATM   68  C50 RAP  6544      -9.626  30.511 231.889  1.00 20.00     0.202 C 
ENDBRANCH  21  67
TORSDOF 9
ENDMDL
MODEL 6
REMARK VINA RESULT:      -5.4      2.334      6.303
REMARK  9 active torsions:
REMARK  status: ('A' for Active; 'I' for Inactive)
REMARK    1  A    between atoms: C10_14  and  O6_16 
REMARK    2  A    between atoms: C16_23  and  O7_24 
REMARK    3  A    between atoms: C27_36  and  O9_37 
REMARK    4  A    between atoms: C28_38  and  O10_39 
REMARK    5  A    between atoms: C34_47  and  C35_48 
REMARK    6  A    between atoms: C35_48  and  C36_49 
REMARK    7  A    between atoms: C36_49  and  C37_50 
REMARK    8  A    between atoms: C39_52  and  O12_53 
REMARK    9  A    between atoms: C40_54  and  O13_55 
ROOT
HETATM    1  C1  RAP  6544      -0.581  34.674 229.165  1.00 20.00     0.282 C 
HETATM    2  O1  RAP  6544      -1.170  33.453 229.595  1.00 20.00    -0.314 OA
HETATM    3  O2  RAP  6544       0.443  35.051 229.732  1.00 20.00    -0.263 OA
HETATM    4  C2  RAP  6544      -1.155  35.491 228.010  1.00 20.00     0.187 C 
HETATM    5  C3  RAP  6544      -1.179  36.975 228.347  1.00 20.00     0.035 C 
HETATM    6  C4  RAP  6544      -2.282  37.363 229.320  1.00 20.00     0.004 C 
HETATM    7  C5  RAP  6544      -3.606  36.890 228.748  1.00 20.00     0.020 C 
HETATM    8  C6  RAP  6544      -3.589  35.410 228.520  1.00 20.00     0.127 C 
HETATM    9  N7  RAP  6544      -2.503  35.112 227.574  1.00 20.00    -0.331 N 
HETATM   10  C8  RAP  6544      -2.678  34.379 226.463  1.00 20.00     0.296 C 
HETATM   11  O3  RAP  6544      -1.683  34.104 225.779  1.00 20.00    -0.264 OA
HETATM   12  C9  RAP  6544      -3.949  33.977 226.000  1.00 20.00     0.278 C 
HETATM   13  O4  RAP  6544      -4.595  34.744 225.274  1.00 20.00    -0.281 OA
HETATM   14  C10 RAP  6544      -4.564  32.613 226.360  1.00 20.00     0.238 C 
HETATM   15  O5  RAP  6544      -5.015  32.744 227.689  1.00 20.00    -0.343 OA
HETATM   16  C11 RAP  6544      -3.533  31.415 226.276  1.00 20.00     0.053 C 
HETATM   17  C12 RAP  6544      -4.101  30.140 226.942  1.00 20.00     0.013 C 
HETATM   18  C13 RAP  6544      -4.655  30.460 228.322  1.00 20.00     0.033 C 
HETATM   19  C14 RAP  6544      -5.587  31.668 228.339  1.00 20.00     0.128 C 
HETATM   20  C15 RAP  6544      -5.788  32.139 229.769  1.00 20.00     0.068 C 
HETATM   21  C16 RAP  6544      -6.608  31.231 230.678  1.00 20.00     0.151 C 
HETATM   22  C17 RAP  6544      -6.703  31.795 232.079  1.00 20.00    -0.055 C 
HETATM   23  C18 RAP  6544      -6.112  31.136 233.068  1.00 20.00     0.005 C 
HETATM   24  C19 RAP  6544      -6.092  31.570 234.471  1.00 20.00     0.000 C 
HETATM   25  C20 RAP  6544      -5.512  30.795 235.377  1.00 20.00    -0.000 C 
HETATM   26  C21 RAP  6544      -5.375  31.230 236.780  1.00 20.00    -0.004 C 
HETATM   27  C22 RAP  6544      -4.627  30.569 237.643  1.00 20.00    -0.022 C 
HETATM   28  C23 RAP  6544      -4.360  31.026 239.061  1.00 20.00     0.005 C 
HETATM   29  C24 RAP  6544      -2.852  31.113 239.214  1.00 20.00     0.020 C 
HETATM   30  C25 RAP  6544      -2.097  31.935 238.186  1.00 20.00     0.055 C 
HETATM   31  C26 RAP  6544      -0.623  31.552 238.162  1.00 20.00     0.162 C 
HETATM   32  O8  RAP  6544       0.187  32.072 238.925  1.00 20.00    -0.295 OA
HETATM   33  C27 RAP  6544      -0.207  30.500 237.139  1.00 20.00     0.223 C 
HETATM   34  C28 RAP  6544       0.072  31.090 235.718  1.00 20.00     0.183 C 
HETATM   35  C29 RAP  6544      -1.203  31.315 234.884  1.00 20.00    -0.056 C 
HETATM   36  C30 RAP  6544      -1.670  32.526 234.582  1.00 20.00    -0.010 C 
HETATM   37  C31 RAP  6544      -2.887  32.926 233.735  1.00 20.00     0.074 C 
HETATM   38  C32 RAP  6544      -2.421  33.397 232.358  1.00 20.00     0.136 C 
HETATM   39  O11 RAP  6544      -2.375  34.593 232.053  1.00 20.00    -0.297 OA
HETATM   40  C33 RAP  6544      -1.960  32.299 231.406  1.00 20.00     0.112 C 
HETATM   41  C34 RAP  6544      -0.706  32.684 230.647  1.00 20.00     0.142 C 
HETATM   42  C43 RAP  6544      -2.997  31.098 224.850  1.00 20.00     0.016 C 
HETATM   43  C44 RAP  6544      -7.519  33.090 232.224  1.00 20.00     0.046 C 
HETATM   44  C45 RAP  6544      -4.948  30.049 240.069  1.00 20.00     0.014 C 
HETATM   45  C46 RAP  6544      -2.265  33.437 238.429  1.00 20.00     0.018 C 
HETATM   46  C47 RAP  6544      -1.895  30.037 234.445  1.00 20.00     0.046 C 
HETATM   47  C48 RAP  6544      -3.636  34.064 234.447  1.00 20.00     0.022 C 
ENDROOT
BRANCH  41  48
HETATM   48  C35 RAP  6544       0.138  31.562 230.008  1.00 20.00     0.012 C 
HETATM   49  C49 RAP  6544       0.766  30.667 231.039  1.00 20.00     0.012 C 
BRANCH  48  50
HETATM   50  C36 RAP  6544       1.200  32.110 229.058  1.00 20.00     0.011 C 
BRANCH  50  51
HETATM   51  C37 RAP  6544       1.236  31.534 227.640  1.00 20.00    -0.012 C 
HETATM   52  C38 RAP  6544       1.775  32.585 226.660  1.00 20.00     0.039 C 
HETATM   53  C39 RAP  6544       1.728  32.120 225.203  1.00 20.00     0.150 C 
HETATM   54  C40 RAP  6544       2.451  30.736 225.060  1.00 20.00     0.147 C 
HETATM   55  C41 RAP  6544       1.945  29.680 226.062  1.00 20.00     0.035 C 
HETATM   56  C42 RAP  6544       1.992  30.215 227.486  1.00 20.00     0.007 C 
BRANCH  53  57
HETATM   57  O12 RAP  6544       2.396  33.102 224.451  1.00 20.00    -0.388 OA
HETATM   58  C52 RAP  6544       1.708  33.638 223.374  1.00 20.00     0.202 C 
ENDBRANCH  53  57
BRANCH  54  59
HETATM   59  O13 RAP  6544       2.262  30.247 223.733  1.00 20.00    -0.393 OA
ATOM     60  H13 RAP  6544       2.207  29.299 223.756  1.00  0.00     0.210 HD
ENDBRANCH  54  59
ENDBRANCH  50  51
ENDBRANCH  48  50
ENDBRANCH  41  48
BRANCH  34  61
HETATM   61  O10 RAP  6544       0.763  32.334 235.895  1.00 20.00    -0.388 OA
ATOM     62  H10 RAP  6544       0.528  32.673 236.751  1.00  0.00     0.210 HD
ENDBRANCH  34  61
BRANCH  33  63
HETATM   63  O9  RAP  6544       0.990  29.906 237.568  1.00 20.00    -0.380 OA
HETATM   64  C51 RAP  6544       1.832  29.466 236.560  1.00 20.00     0.202 C 
ENDBRANCH  33  63
BRANCH  14  65
HETATM   65  O6  RAP  6544      -5.654  32.350 225.471  1.00 20.00    -0.359 OA
ATOM     66  H6  RAP  6544      -5.873  33.150 225.007  1.00  0.00     0.213 HD
ENDBRANCH  14  65
BRANCH  21  67
HETATM   67  O7  RAP  6544      -7.886  31.124 230.134  1.00 20.00    -0.386 OA
HETATM   68  C50 RAP  6544      -8.606  29.980 230.467  1.00 20.00     0.202 C 
ENDBRANCH  21  67
TORSDOF 9
ENDMDL
MODEL 7
REMARK VINA RESULT:      -5.3      2.329      6.350
REMARK  9 active torsions:
REMARK  status: ('A' for Active; 'I' for Inactive)
REMARK    1  A    between atoms: C10_14  and  O6_16 
REMARK    2  A    between atoms: C16_23  and  O7_24 
REMARK    3  A    between atoms: C27_36  and  O9_37 
REMARK    4  A    between atoms: C28_38  and  O10_39 
REMARK    5  A    between atoms: C34_47  and  C35_48 
REMARK    6  A    between atoms: C35_48  and  C36_49 
REMARK    7  A    between atoms: C36_49  and  C37_50 
REMARK    8  A    between atoms: C39_52  and  O12_53 
REMARK    9  A    between atoms: C40_54  and  O13_55 
ROOT
HETATM    1  C1  RAP  6544      -0.446  34.949 228.698  1.00 20.00     0.282 C 
HETATM    2  O1  RAP  6544      -0.927  33.756 229.303  1.00 20.00    -0.314 OA
HETATM    3  O2  RAP  6544       0.732  35.252 228.877  1.00 20.00    -0.263 OA
HETATM    4  C2  RAP  6544      -1.331  35.826 227.815  1.00 20.00     0.187 C 
HETATM    5  C3  RAP  6544      -1.142  37.300 228.142  1.00 20.00     0.035 C 
HETATM    6  C4  RAP  6544      -1.814  37.729 229.438  1.00 20.00     0.004 C 
HETATM    7  C5  RAP  6544      -3.282  37.349 229.358  1.00 20.00     0.020 C 
HETATM    8  C6  RAP  6544      -3.438  35.876 229.136  1.00 20.00     0.127 C 
HETATM    9  N7  RAP  6544      -2.768  35.537 227.872  1.00 20.00    -0.331 N 
HETATM   10  C8  RAP  6544      -3.362  34.842 226.889  1.00 20.00     0.296 C 
HETATM   11  O3  RAP  6544      -2.684  34.525 225.902  1.00 20.00    -0.264 OA
HETATM   12  C9  RAP  6544      -4.737  34.527 226.894  1.00 20.00     0.278 C 
HETATM   13  O4  RAP  6544      -5.544  35.348 226.438  1.00 20.00    -0.281 OA
HETATM   14  C10 RAP  6544      -5.276  33.193 227.442  1.00 20.00     0.238 C 
HETATM   15  O5  RAP  6544      -5.230  33.320 228.845  1.00 20.00    -0.343 OA
HETATM   16  C11 RAP  6544      -4.416  31.939 227.005  1.00 20.00     0.053 C 
HETATM   17  C12 RAP  6544      -4.798  30.684 227.824  1.00 20.00     0.013 C 
HETATM   18  C13 RAP  6544      -4.819  31.005 229.311  1.00 20.00     0.033 C 
HETATM   19  C14 RAP  6544      -5.609  32.264 229.652  1.00 20.00     0.128 C 
HETATM   20  C15 RAP  6544      -5.274  32.712 231.063  1.00 20.00     0.068 C 
HETATM   21  C16 RAP  6544      -5.785  31.833 232.199  1.00 20.00     0.151 C 
HETATM   22  C17 RAP  6544      -5.354  32.368 233.547  1.00 20.00    -0.055 C 
HETATM   23  C18 RAP  6544      -4.501  31.652 234.269  1.00 20.00     0.005 C 
HETATM   24  C19 RAP  6544      -3.970  32.051 235.579  1.00 20.00     0.000 C 
HETATM   25  C20 RAP  6544      -3.163  31.223 236.226  1.00 20.00    -0.000 C 
HETATM   26  C21 RAP  6544      -2.522  31.615 237.496  1.00 20.00    -0.004 C 
HETATM   27  C22 RAP  6544      -1.566  30.891 238.046  1.00 20.00    -0.022 C 
HETATM   28  C23 RAP  6544      -0.797  31.298 239.285  1.00 20.00     0.005 C 
HETATM   29  C24 RAP  6544       0.673  31.292 238.906  1.00 20.00     0.020 C 
HETATM   30  C25 RAP  6544       1.077  32.092 237.681  1.00 20.00     0.055 C 
HETATM   31  C26 RAP  6544       2.424  31.623 237.148  1.00 20.00     0.162 C 
HETATM   32  O8  RAP  6544       3.480  32.076 237.584  1.00 20.00    -0.295 OA
HETATM   33  C27 RAP  6544       2.394  30.573 236.042  1.00 20.00     0.223 C 
HETATM   34  C28 RAP  6544       2.202  31.179 234.614  1.00 20.00     0.183 C 
HETATM   35  C29 RAP  6544       0.733  31.499 234.273  1.00 20.00    -0.056 C 
HETATM   36  C30 RAP  6544       0.269  32.742 234.154  1.00 20.00    -0.010 C 
HETATM   37  C31 RAP  6544      -1.137  33.233 233.781  1.00 20.00     0.074 C 
HETATM   38  C32 RAP  6544      -1.147  33.708 232.329  1.00 20.00     0.136 C 
HETATM   39  O11 RAP  6544      -1.133  34.906 232.029  1.00 20.00    -0.297 OA
HETATM   40  C33 RAP  6544      -1.114  32.607 231.274  1.00 20.00     0.112 C 
HETATM   41  C34 RAP  6544      -0.178  32.935 230.129  1.00 20.00     0.142 C 
HETATM   42  C43 RAP  6544      -4.426  31.625 225.481  1.00 20.00     0.016 C 
HETATM   43  C44 RAP  6544      -5.986  33.706 233.968  1.00 20.00     0.046 C 
HETATM   44  C45 RAP  6544      -1.061  30.334 240.432  1.00 20.00     0.014 C 
HETATM   45  C46 RAP  6544       1.099  33.595 237.970  1.00 20.00     0.018 C 
HETATM   46  C47 RAP  6544      -0.147  30.275 234.098  1.00 20.00     0.046 C 
HETATM   47  C48 RAP  6544      -1.520  34.396 234.711  1.00 20.00     0.022 C 
ENDROOT
BRANCH  41  48
HETATM   48  C35 RAP  6544       0.321  31.781 229.235  1.00 20.00     0.012 C 
HETATM   49  C49 RAP  6544       0.725  30.576 230.036  1.00 20.00     0.012 C 
BRANCH  48  50
HETATM   50  C36 RAP  6544       1.457  32.216 228.313  1.00 20.00     0.011 C 
BRANCH  50  51
HETATM   51  C37 RAP  6544       1.502  31.593 226.915  1.00 20.00    -0.012 C 
HETATM   52  C38 RAP  6544       1.305  32.679 225.850  1.00 20.00     0.039 C 
HETATM   53  C39 RAP  6544       1.220  32.114 224.431  1.00 20.00     0.150 C 
HETATM   54  C40 RAP  6544       2.466  31.206 224.141  1.00 20.00     0.147 C 
HETATM   55  C41 RAP  6544       2.699  30.132 225.222  1.00 20.00     0.035 C 
HETATM   56  C42 RAP  6544       2.745  30.757 226.609  1.00 20.00     0.007 C 
BRANCH  53  57
HETATM   57  O12 RAP  6544       1.208  33.219 223.562  1.00 20.00    -0.388 OA
HETATM   58  C52 RAP  6544       2.319  34.048 223.591  1.00 20.00     0.202 C 
ENDBRANCH  53  57
BRANCH  54  59
HETATM   59  O13 RAP  6544       2.293  30.566 222.878  1.00 20.00    -0.393 OA
ATOM     60  H13 RAP  6544       3.073  30.064 222.675  1.00  0.00     0.210 HD
ENDBRANCH  54  59
ENDBRANCH  50  51
ENDBRANCH  48  50
ENDBRANCH  41  48
BRANCH  34  61
HETATM   61  O10 RAP  6544       2.989  32.375 234.542  1.00 20.00    -0.388 OA
ATOM     62  H10 RAP  6544       2.601  32.934 233.879  1.00  0.00     0.210 HD
ENDBRANCH  34  61
BRANCH  33  63
HETATM   63  O9  RAP  6544       3.624  29.899 236.029  1.00 20.00    -0.380 OA
HETATM   64  C51 RAP  6544       4.076  29.458 237.262  1.00 20.00     0.202 C 
ENDBRANCH  33  63
BRANCH  14  65
HETATM   65  O6  RAP  6544      -6.620  33.017 226.985  1.00 20.00    -0.359 OA
ATOM     66  H6  RAP  6544      -6.988  32.246 227.401  1.00  0.00     0.213 HD
ENDBRANCH  14  65
BRANCH  21  67
HETATM   67  O7  RAP  6544      -7.177  31.815 232.131  1.00 20.00    -0.386 OA
HETATM   68  C50 RAP  6544      -7.799  30.632 232.519  1.00 20.00     0.202 C 
ENDBRANCH  21  67
TORSDOF 9
ENDMDL
MODEL 8
REMARK VINA RESULT:      -5.3      2.480      3.949
REMARK  9 active torsions:
REMARK  status: ('A' for Active; 'I' for Inactive)
REMARK    1  A    between atoms: C10_14  and  O6_16 
REMARK    2  A    between atoms: C16_23  and  O7_24 
REMARK    3  A    between atoms: C27_36  and  O9_37 
REMARK    4  A    between atoms: C28_38  and  O10_39 
REMARK    5  A    between atoms: C34_47  and  C35_48 
REMARK    6  A    between atoms: C35_48  and  C36_49 
REMARK    7  A    between atoms: C36_49  and  C37_50 
REMARK    8  A    between atoms: C39_52  and  O12_53 
REMARK    9  A    between atoms: C40_54  and  O13_55 
ROOT
HETATM    1  C1  RAP  6544      -4.659  31.550 225.755  1.00 20.00     0.282 C 
HETATM    2  O1  RAP  6544      -4.959  32.597 226.669  1.00 20.00    -0.314 OA
HETATM    3  O2  RAP  6544      -4.694  30.393 226.172  1.00 20.00    -0.263 OA
HETATM    4  C2  RAP  6544      -4.341  31.819 224.286  1.00 20.00     0.187 C 
HETATM    5  C3  RAP  6544      -3.155  30.987 223.821  1.00 20.00     0.035 C 
HETATM    6  C4  RAP  6544      -1.813  31.501 224.324  1.00 20.00     0.004 C 
HETATM    7  C5  RAP  6544      -1.681  32.956 223.915  1.00 20.00     0.020 C 
HETATM    8  C6  RAP  6544      -2.808  33.770 224.471  1.00 20.00     0.127 C 
HETATM    9  N7  RAP  6544      -4.065  33.219 223.943  1.00 20.00    -0.331 N 
HETATM   10  C8  RAP  6544      -5.002  33.970 223.345  1.00 20.00     0.296 C 
HETATM   11  O3  RAP  6544      -6.068  33.429 223.019  1.00 20.00    -0.264 OA
HETATM   12  C9  RAP  6544      -4.797  35.323 222.999  1.00 20.00     0.278 C 
HETATM   13  O4  RAP  6544      -4.268  35.593 221.914  1.00 20.00    -0.281 OA
HETATM   14  C10 RAP  6544      -5.214  36.482 223.923  1.00 20.00     0.238 C 
HETATM   15  O5  RAP  6544      -4.237  36.521 224.938  1.00 20.00    -0.343 OA
HETATM   16  C11 RAP  6544      -6.639  36.281 224.581  1.00 20.00     0.053 C 
HETATM   17  C12 RAP  6544      -6.875  37.293 225.727  1.00 20.00     0.013 C 
HETATM   18  C13 RAP  6544      -5.687  37.308 226.677  1.00 20.00     0.033 C 
HETATM   19  C14 RAP  6544      -4.342  37.435 225.969  1.00 20.00     0.128 C 
HETATM   20  C15 RAP  6544      -3.223  37.069 226.928  1.00 20.00     0.068 C 
HETATM   21  C16 RAP  6544      -2.951  38.047 228.065  1.00 20.00     0.151 C 
HETATM   22  C17 RAP  6544      -1.841  37.550 228.966  1.00 20.00    -0.055 C 
HETATM   23  C18 RAP  6544      -2.140  37.217 230.215  1.00 20.00     0.005 C 
HETATM   24  C19 RAP  6544      -1.181  36.693 231.197  1.00 20.00     0.000 C 
HETATM   25  C20 RAP  6544      -1.593  36.446 232.431  1.00 20.00    -0.000 C 
HETATM   26  C21 RAP  6544      -0.698  35.826 233.426  1.00 20.00    -0.004 C 
HETATM   27  C22 RAP  6544      -1.145  35.388 234.588  1.00 20.00    -0.022 C 
HETATM   28  C23 RAP  6544      -0.300  34.646 235.601  1.00 20.00     0.005 C 
HETATM   29  C24 RAP  6544      -0.999  33.325 235.868  1.00 20.00     0.020 C 
HETATM   30  C25 RAP  6544      -1.350  32.470 234.665  1.00 20.00     0.055 C 
HETATM   31  C26 RAP  6544      -2.436  31.462 235.015  1.00 20.00     0.162 C 
HETATM   32  O8  RAP  6544      -2.162  30.367 235.501  1.00 20.00    -0.295 OA
HETATM   33  C27 RAP  6544      -3.874  31.876 234.723  1.00 20.00     0.223 C 
HETATM   34  C28 RAP  6544      -4.310  31.614 233.245  1.00 20.00     0.183 C 
HETATM   35  C29 RAP  6544      -3.853  32.712 232.265  1.00 20.00    -0.056 C 
HETATM   36  C30 RAP  6544      -2.916  32.517 231.338  1.00 20.00    -0.010 C 
HETATM   37  C31 RAP  6544      -2.380  33.476 230.266  1.00 20.00     0.074 C 
HETATM   38  C32 RAP  6544      -2.978  33.114 228.908  1.00 20.00     0.136 C 
HETATM   39  O11 RAP  6544      -2.335  32.504 228.048  1.00 20.00    -0.297 OA
HETATM   40  C33 RAP  6544      -4.438  33.503 228.705  1.00 20.00     0.112 C 
HETATM   41  C34 RAP  6544      -5.233  32.414 228.013  1.00 20.00     0.142 C 
HETATM   42  C43 RAP  6544      -7.837  36.287 223.588  1.00 20.00     0.016 C 
HETATM   43  C44 RAP  6544      -0.438  37.510 228.337  1.00 20.00     0.046 C 
HETATM   44  C45 RAP  6544      -0.156  35.449 236.885  1.00 20.00     0.014 C 
HETATM   45  C46 RAP  6544      -0.117  31.766 234.093  1.00 20.00     0.018 C 
HETATM   46  C47 RAP  6544      -4.553  34.046 232.453  1.00 20.00     0.046 C 
HETATM   47  C48 RAP  6544      -0.848  33.351 230.209  1.00 20.00     0.022 C 
ENDROOT
BRANCH  41  48
HETATM   48  C35 RAP  6544      -6.770  32.437 228.136  1.00 20.00     0.012 C 
HETATM   49  C49 RAP  6544      -7.428  33.027 226.921  1.00 20.00     0.012 C 
BRANCH  48  50
HETATM   50  C36 RAP  6544      -7.237  33.155 229.399  1.00 20.00     0.011 C 
BRANCH  50  51
HETATM   51  C37 RAP  6544      -7.583  32.288 230.612  1.00 20.00    -0.012 C 
HETATM   52  C38 RAP  6544      -8.170  33.159 231.730  1.00 20.00     0.039 C 
HETATM   53  C39 RAP  6544      -8.429  32.379 233.020  1.00 20.00     0.150 C 
HETATM   54  C40 RAP  6544      -9.311  31.117 232.714  1.00 20.00     0.147 C 
HETATM   55  C41 RAP  6544      -8.752  30.251 231.568  1.00 20.00     0.035 C 
HETATM   56  C42 RAP  6544      -8.491  31.093 230.327  1.00 20.00     0.007 C 
BRANCH  53  57
HETATM   57  O12 RAP  6544      -9.111  33.253 233.885  1.00 20.00    -0.388 OA
HETATM   58  C52 RAP  6544      -8.506  34.473 234.142  1.00 20.00     0.202 C 
ENDBRANCH  53  57
BRANCH  54  59
HETATM   59  O13 RAP  6544      -9.411  30.322 233.893  1.00 20.00    -0.393 OA
ATOM     60  H13 RAP  6544      -8.990  30.778 234.612  1.00  0.00     0.210 HD
ENDBRANCH  54  59
ENDBRANCH  50  51
ENDBRANCH  48  50
ENDBRANCH  41  48
BRANCH  34  61
HETATM   61  O10 RAP  6544      -3.758  30.351 232.849  1.00 20.00    -0.388 OA
ATOM     62  H10 RAP  6544      -3.879  29.747 233.573  1.00  0.00     0.210 HD
ENDBRANCH  34  61
BRANCH  33  63
HETATM   63  O9  RAP  6544      -4.733  31.119 235.534  1.00 20.00    -0.380 OA
HETATM   64  C51 RAP  6544      -6.080  31.209 235.224  1.00 20.00     0.202 C 
ENDBRANCH  33  63
BRANCH  14  65
HETATM   65  O6  RAP  6544      -5.219  37.696 223.166  1.00 20.00    -0.359 OA
ATOM     66  H6  RAP  6544      -5.964  37.687 222.576  1.00  0.00     0.213 HD
ENDBRANCH  14  65
BRANCH  21  67
HETATM   67  O7  RAP  6544      -2.580  39.266 227.501  1.00 20.00    -0.386 OA
HETATM   68  C50 RAP  6544      -2.170  40.258 228.388  1.00 20.00     0.202 C 
ENDBRANCH  21  67
TORSDOF 9
ENDMDL
MODEL 9
REMARK VINA RESULT:      -4.1      2.462      9.724
REMARK  9 active torsions:
REMARK  status: ('A' for Active; 'I' for Inactive)
REMARK    1  A    between atoms: C10_14  and  O6_16 
REMARK    2  A    between atoms: C16_23  and  O7_24 
REMARK    3  A    between atoms: C27_36  and  O9_37 
REMARK    4  A    between atoms: C28_38  and  O10_39 
REMARK    5  A    between atoms: C34_47  and  C35_48 
REMARK    6  A    between atoms: C35_48  and  C36_49 
REMARK    7  A    between atoms: C36_49  and  C37_50 
REMARK    8  A    between atoms: C39_52  and  O12_53 
REMARK    9  A    between atoms: C40_54  and  O13_55 
ROOT
HETATM    1  C1  RAP  6544       1.482  32.099 233.289  1.00 20.00     0.282 C 
HETATM    2  O1  RAP  6544       0.559  33.004 232.696  1.00 20.00    -0.314 OA
HETATM    3  O2  RAP  6544       2.348  31.604 232.569  1.00 20.00    -0.263 OA
HETATM    4  C2  RAP  6544       1.450  31.764 234.778  1.00 20.00     0.187 C 
HETATM    5  C3  RAP  6544       1.627  30.271 235.009  1.00 20.00     0.035 C 
HETATM    6  C4  RAP  6544       0.388  29.451 234.681  1.00 20.00     0.004 C 
HETATM    7  C5  RAP  6544      -0.775  30.013 235.477  1.00 20.00     0.020 C 
HETATM    8  C6  RAP  6544      -0.990  31.460 235.155  1.00 20.00     0.127 C 
HETATM    9  N7  RAP  6544       0.242  32.185 235.496  1.00 20.00    -0.331 N 
HETATM   10  C8  RAP  6544       0.258  33.283 236.269  1.00 20.00     0.296 C 
HETATM   11  O3  RAP  6544       1.334  33.877 236.422  1.00 20.00    -0.264 OA
HETATM   12  C9  RAP  6544      -0.874  33.741 236.976  1.00 20.00     0.278 C 
HETATM   13  O4  RAP  6544      -1.109  33.278 238.100  1.00 20.00    -0.281 OA
HETATM   14  C10 RAP  6544      -1.829  34.803 236.404  1.00 20.00     0.238 C 
HETATM   15  O5  RAP  6544      -2.614  34.125 235.450  1.00 20.00    -0.343 OA
HETATM   16  C11 RAP  6544      -1.083  36.008 235.700  1.00 20.00     0.053 C 
HETATM   17  C12 RAP  6544      -2.065  36.872 234.876  1.00 20.00     0.013 C 
HETATM   18  C13 RAP  6544      -2.924  35.993 233.980  1.00 20.00     0.033 C 
HETATM   19  C14 RAP  6544      -3.557  34.812 234.709  1.00 20.00     0.128 C 
HETATM   20  C15 RAP  6544      -4.071  33.802 233.699  1.00 20.00     0.068 C 
HETATM   21  C16 RAP  6544      -5.287  34.214 232.878  1.00 20.00     0.151 C 
HETATM   22  C17 RAP  6544      -5.674  33.138 231.887  1.00 20.00    -0.055 C 
HETATM   23  C18 RAP  6544      -5.546  33.394 230.592  1.00 20.00     0.005 C 
HETATM   24  C19 RAP  6544      -5.852  32.444 229.514  1.00 20.00     0.000 C 
HETATM   25  C20 RAP  6544      -5.733  32.838 228.255  1.00 20.00    -0.000 C 
HETATM   26  C21 RAP  6544      -5.930  31.896 227.137  1.00 20.00    -0.004 C 
HETATM   27  C22 RAP  6544      -5.619  32.214 225.895  1.00 20.00    -0.022 C 
HETATM   28  C23 RAP  6544      -5.694  31.256 224.726  1.00 20.00     0.005 C 
HETATM   29  C24 RAP  6544      -4.313  31.226 224.098  1.00 20.00     0.020 C 
HETATM   30  C25 RAP  6544      -3.139  30.934 225.014  1.00 20.00     0.055 C 
HETATM   31  C26 RAP  6544      -1.833  31.402 224.388  1.00 20.00     0.162 C 
HETATM   32  O8  RAP  6544      -1.195  30.684 223.621  1.00 20.00    -0.295 OA
HETATM   33  C27 RAP  6544      -1.354  32.800 224.767  1.00 20.00     0.223 C 
HETATM   34  C28 RAP  6544      -0.557  32.841 226.111  1.00 20.00     0.183 C 
HETATM   35  C29 RAP  6544      -1.458  32.871 227.361  1.00 20.00    -0.056 C 
HETATM   36  C30 RAP  6544      -1.562  31.847 228.207  1.00 20.00    -0.010 C 
HETATM   37  C31 RAP  6544      -2.369  31.727 229.508  1.00 20.00     0.074 C 
HETATM   38  C32 RAP  6544      -1.433  31.873 230.707  1.00 20.00     0.136 C 
HETATM   39  O11 RAP  6544      -1.060  30.901 231.373  1.00 20.00    -0.297 OA
HETATM   40  C33 RAP  6544      -0.944  33.288 230.994  1.00 20.00     0.112 C 
HETATM   41  C34 RAP  6544       0.529  33.327 231.351  1.00 20.00     0.142 C 
HETATM   42  C43 RAP  6544      -0.226  36.901 236.645  1.00 20.00     0.016 C 
HETATM   43  C44 RAP  6544      -6.219  31.835 232.496  1.00 20.00     0.046 C 
HETATM   44  C45 RAP  6544      -6.736  31.709 223.715  1.00 20.00     0.014 C 
HETATM   45  C46 RAP  6544      -3.066  29.450 225.383  1.00 20.00     0.018 C 
HETATM   46  C47 RAP  6544      -2.232  34.164 227.541  1.00 20.00     0.046 C 
HETATM   47  C48 RAP  6544      -3.049  30.348 229.545  1.00 20.00     0.022 C 
ENDROOT
BRANCH  41  48
HETATM   48  C35 RAP  6544       1.279  34.668 231.222  1.00 20.00     0.012 C 
HETATM   49  C49 RAP  6544       1.080  35.548 232.424  1.00 20.00     0.012 C 
BRANCH  48  50
HETATM   50  C36 RAP  6544       0.909  35.416 229.944  1.00 20.00     0.011 C 
BRANCH  50  51
HETATM   51  C37 RAP  6544      -0.321  36.326 229.995  1.00 20.00    -0.012 C 
HETATM   52  C38 RAP  6544      -0.394  37.182 228.725  1.00 20.00     0.039 C 
HETATM   53  C39 RAP  6544      -1.533  38.202 228.758  1.00 20.00     0.150 C 
HETATM   54  C40 RAP  6544      -2.889  37.480 229.076  1.00 20.00     0.147 C 
HETATM   55  C41 RAP  6544      -2.821  36.587 230.330  1.00 20.00     0.035 C 
HETATM   56  C42 RAP  6544      -1.652  35.617 230.245  1.00 20.00     0.007 C 
BRANCH  53  57
HETATM   57  O12 RAP  6544      -1.580  38.790 227.482  1.00 20.00    -0.388 OA
HETATM   58  C52 RAP  6544      -0.997  40.040 227.350  1.00 20.00     0.202 C 
ENDBRANCH  53  57
BRANCH  54  59
HETATM   59  O13 RAP  6544      -3.909  38.461 229.257  1.00 20.00    -0.393 OA
ATOM     60  H13 RAP  6544      -3.510  39.323 229.283  1.00  0.00     0.210 HD
ENDBRANCH  54  59
ENDBRANCH  50  51
ENDBRANCH  48  50
ENDBRANCH  41  48
BRANCH  34  61
HETATM   61  O10 RAP  6544       0.287  31.682 226.149  1.00 20.00    -0.388 OA
ATOM     62  H10 RAP  6544       1.140  31.938 225.815  1.00  0.00     0.210 HD
ENDBRANCH  34  61
BRANCH  33  63
HETATM   63  O9  RAP  6544      -0.482  33.262 223.770  1.00 20.00    -0.380 OA
HETATM   64  C51 RAP  6544      -1.091  33.775 222.636  1.00 20.00     0.202 C 
ENDBRANCH  33  63
BRANCH  14  65
HETATM   65  O6  RAP  6544      -2.639  35.315 237.467  1.00 20.00    -0.359 OA
ATOM     66  H6  RAP  6544      -3.548  35.315 237.189  1.00  0.00     0.213 HD
ENDBRANCH  14  65
BRANCH  21  67
HETATM   67  O7  RAP  6544      -6.343  34.434 233.761  1.00 20.00    -0.386 OA
HETATM   68  C50 RAP  6544      -7.594  34.646 233.187  1.00 20.00     0.202 C 
ENDBRANCH  21  67
TORSDOF 9
ENDMDL
