REMARK  8 active torsions:
REMARK  status: ('A' for Active; 'I' for Inactive)
REMARK    1  A    between atoms: O1_1  and  C7_15 
REMARK    2  A    between atoms: O1_1  and  C14_22 
REMARK    3  A    between atoms: O2_2  and  C11_19 
REMARK    4  A    between atoms: N2_8  and  C8_16 
REMARK    5  A    between atoms: C1_9  and  C4_12 
REMARK    6  A    between atoms: C2_10  and  C7_15 
REMARK    7  A    between atoms: C3_11  and  C11_19 
REMARK    8  A    between atoms: C13_21  and  C14_22 
ROOT
ATOM      1  N1  UNK     1    -114.442   4.556 111.002  1.00  0.00    -0.362 N 
ATOM      2  C1  UNK     1    -113.114   2.132 110.375  1.00  0.00     0.103 C 
ATOM      3  C2  UNK     1    -112.827   3.459 109.663  1.00  0.00     0.052 C 
ATOM      4  C3  UNK     1    -114.069   2.287 111.564  1.00  0.00     0.052 C 
ATOM      5  C5  UNK     1    -113.497   4.588 109.988  1.00  0.00     0.018 C 
ATOM      6  C6  UNK     1    -114.700   3.458 111.807  1.00  0.00     0.018 C 
ATOM      7  C10 UNK     1    -113.319   5.929 109.328  1.00  0.00     0.069 C 
ATOM      8  C12 UNK     1    -115.692   3.702 112.912  1.00  0.00     0.069 C 
ATOM      9  H2  UNK     1    -114.931   5.418 111.214  1.00  0.00     0.165 HD
ENDROOT
BRANCH   2  10
ATOM     10  C4  UNK     1    -113.671   1.137 109.399  1.00  0.00    -0.012 A 
ATOM     11  C8  UNK     1    -112.832   0.324 108.643  1.00  0.00     0.110 A 
ATOM     12  C15 UNK     1    -113.379  -0.590 107.744  1.00  0.00     0.037 A 
ATOM     13  C17 UNK     1    -114.764  -0.687 107.602  1.00  0.00     0.002 A 
ATOM     14  C16 UNK     1    -115.601   0.130 108.361  1.00  0.00     0.001 A 
ATOM     15  C9  UNK     1    -115.053   1.045 109.262  1.00  0.00     0.011 A 
BRANCH  11  16
ATOM     16  N2  UNK     1    -111.417   0.407 108.769  1.00  0.00    -0.115 N 
ATOM     17  O5  UNK     1    -110.702  -0.346 108.066  1.00  0.00    -0.532 OA
ATOM     18  O6  UNK     1    -110.928   1.230 109.579  1.00  0.00    -0.532 OA
ENDBRANCH  11  16
ENDBRANCH   2  10
BRANCH   3  19
ATOM     19  C7  UNK     1    -111.747   3.449 108.663  1.00  0.00     0.292 C 
ATOM     20  O3  UNK     1    -110.577   3.638 108.940  1.00  0.00    -0.259 OA
BRANCH  19  21
ATOM     21  O1  UNK     1    -112.292   3.202 107.448  1.00  0.00    -0.317 OA
BRANCH  21  22
ATOM     22  C14 UNK     1    -111.360   3.161 106.361  1.00  0.00     0.183 C 
BRANCH  22  23
ATOM     23  C13 UNK     1    -112.099   2.877 105.050  1.00  0.00     0.002 C 
ATOM     24  C18 UNK     1    -111.106   2.736 103.899  1.00  0.00     0.011 C 
ATOM     25  C19 UNK     1    -113.123   3.970 104.739  1.00  0.00     0.011 C 
ENDBRANCH  22  23
ENDBRANCH  21  22
ENDBRANCH  19  21
ENDBRANCH   3  19
BRANCH   4  26
ATOM     26  C11 UNK     1    -114.218   1.119 112.446  1.00  0.00     0.291 C 
ATOM     27  O4  UNK     1    -115.080   0.273 112.295  1.00  0.00    -0.260 OA
BRANCH  26  28
ATOM     28  O2  UNK     1    -113.256   1.176 113.399  1.00  0.00    -0.323 OA
ATOM     29  C20 UNK     1    -113.271   0.097 114.341  1.00  0.00     0.213 C 
ENDBRANCH  26  28
ENDBRANCH   4  26
TORSDOF 8
