REMARK  5 active torsions:
REMARK  status: ('A' for Active; 'I' for Inactive)
REMARK    1  A    between atoms: C1_1  and  C4_4 
REMARK    2  A    between atoms: C1_1  and  O1_6 
REMARK    3  A    between atoms: C2_2  and  C4_4 
REMARK    4  A    between atoms: C2_2  and  S1_10 
REMARK       I    between atoms: C3_3  and  N1_5 
REMARK    5  A    between atoms: C4_4  and  N1_5 
ROOT
ATOM      1  C4  UNK     1      48.742  69.024  21.502  1.00  0.00     0.191 C 
ENDROOT
BRANCH   1   2
ATOM      2  C1  UNK     1      48.021  67.877  22.153  1.00  0.00     0.164 C 
ATOM      3  O2  UNK     1      48.579  66.751  22.196  1.00  0.00    -0.648 OA
BRANCH   2   4
ATOM      4  O1  UNK     1      46.886  68.109  22.642  1.00  0.00    -0.775 OA
ATOM      5  H5  UNK     1      46.541  67.315  23.033  1.00  0.00     0.167 HD
ENDBRANCH   2   4
ENDBRANCH   1   2
BRANCH   1   6
ATOM      6  C2  UNK     1      47.732  69.937  20.806  1.00  0.00     0.106 C 
BRANCH   6   7
ATOM      7  S1  UNK     1      47.137  69.216  19.246  1.00  0.00    -0.180 SA
ATOM      8  H9  UNK     1      46.310  70.127  18.825  1.00  0.00     0.101 HD
ENDBRANCH   6   7
ENDBRANCH   1   6
BRANCH   1   9
ATOM      9  N1  UNK     1      49.787  68.608  20.581  1.00  0.00    -0.346 N 
ATOM     10  C3  UNK     1      51.077  68.841  20.821  1.00  0.00     0.214 C 
ATOM     11  O3  UNK     1      51.814  68.247  21.442  1.00  0.00    -0.274 OA
ATOM     12  C5  UNK     1      51.530  70.277  20.937  1.00  0.00     0.117 C 
ATOM     13  H1  UNK     1      49.530  68.132  19.740  1.00  0.00     0.163 HD
ENDBRANCH   1   9
TORSDOF 5
