MODEL 1
REMARK VINA RESULT:      -9.6      0.000      0.000
REMARK  7 active torsions:
REMARK  status: ('A' for Active; 'I' for Inactive)
REMARK    1  A    between atoms: N1_4  and  C6_12 
REMARK    2  A    between atoms: N2_5  and  C1_7 
REMARK    3  A    between atoms: C6_12  and  C7_13 
REMARK    4  A    between atoms: C7_13  and  C9_15 
REMARK    5  A    between atoms: C9_15  and  C11_17 
REMARK    6  A    between atoms: C11_17  and  C14_20 
REMARK    7  A    between atoms: C11_17  and  C15_21 
ROOT
ATOM      1  C6  UNK     1      -2.073  38.462 231.044  1.00  0.00     0.272 C 
ENDROOT
BRANCH   1   2
ATOM      2  N1  UNK     1      -1.363  37.734 232.097  1.00  0.00     0.088 N 
ATOM      3  C4  UNK     1       0.041  37.521 231.717  1.00  0.00     0.274 C 
ATOM      4  C2  UNK     1       0.785  36.715 232.783  1.00  0.00     0.056 C 
ATOM      5  C1  UNK     1       0.688  37.385 234.154  1.00  0.00     0.098 C 
ATOM      6  C3  UNK     1      -0.773  37.676 234.498  1.00  0.00     0.056 C 
ATOM      7  C5  UNK     1      -1.465  38.450 233.375  1.00  0.00     0.274 C 
BRANCH   5   8
ATOM      8  N2  UNK     1       1.309  36.572 235.168  1.00  0.00    -0.293 N 
ATOM      9  C8  UNK     1       2.112  37.048 236.213  1.00  0.00     0.066 A 
ATOM     10  C12 UNK     1       2.516  35.952 236.973  1.00  0.00     0.063 A 
ATOM     11  C13 UNK     1       2.502  38.332 236.535  1.00  0.00     0.032 A 
ATOM     12  N3  UNK     1       1.973  34.796 236.412  1.00  0.00    -0.306 N 
ATOM     13  C16 UNK     1       3.323  36.080 238.082  1.00  0.00     0.032 A 
ATOM     14  C10 UNK     1       1.205  35.158 235.268  1.00  0.00     0.328 A 
ATOM     15  H17 UNK     1       2.111  33.859 236.769  1.00  0.00     0.171 HD
ATOM     16  O1  UNK     1       0.589  34.395 234.537  1.00  0.00    -0.247 OA
ATOM     17  C18 UNK     1       3.727  37.373 238.424  1.00  0.00     0.002 A 
ATOM     18  C17 UNK     1       3.321  38.487 237.658  1.00  0.00     0.002 A 
ENDBRANCH   5   8
ENDBRANCH   1   2
BRANCH   1  19
ATOM     19  C7  UNK     1      -1.598  39.913 230.992  1.00  0.00     0.031 C 
BRANCH  19  20
ATOM     20  C9  UNK     1      -1.126  40.289 229.579  1.00  0.00     0.016 C 
BRANCH  20  21
ATOM     21  C11 UNK     1      -1.215  41.813 229.304  1.00  0.00     0.051 C 
BRANCH  21  22
ATOM     22  C14 UNK     1       0.138  42.511 229.285  1.00  0.00    -0.049 A 
ATOM     23  C19 UNK     1       0.306  43.659 230.031  1.00  0.00     0.011 A 
ATOM     24  C23 UNK     1       1.545  44.298 230.012  1.00  0.00     0.043 A 
ATOM     25  C27 UNK     1       2.589  43.776 229.248  1.00  0.00     0.116 A 
ATOM     26  F1  UNK     1       3.779  44.390 229.230  1.00  0.00    -0.206 F 
ATOM     27  C25 UNK     1       2.393  42.612 228.502  1.00  0.00     0.043 A 
ATOM     28  C21 UNK     1       1.153  41.973 228.521  1.00  0.00     0.011 A 
ENDBRANCH  21  22
BRANCH  21  29
ATOM     29  C15 UNK     1      -2.028  42.149 228.057  1.00  0.00    -0.049 A 
ATOM     30  C20 UNK     1      -1.448  42.924 227.077  1.00  0.00     0.011 A 
ATOM     31  C24 UNK     1      -2.190  43.231 225.938  1.00  0.00     0.043 A 
ATOM     32  C28 UNK     1      -3.495  42.757 225.806  1.00  0.00     0.116 A 
ATOM     33  F2  UNK     1      -4.209  43.053 224.712  1.00  0.00    -0.206 F 
ATOM     34  C26 UNK     1      -4.057  41.974 226.814  1.00  0.00     0.043 A 
ATOM     35  C22 UNK     1      -3.314  41.667 227.956  1.00  0.00     0.011 A 
ENDBRANCH  21  29
ENDBRANCH  20  21
ENDBRANCH  19  20
ENDBRANCH   1  19
TORSDOF 7
ENDMDL
MODEL 2
REMARK VINA RESULT:      -9.6      0.438      3.883
REMARK  7 active torsions:
REMARK  status: ('A' for Active; 'I' for Inactive)
REMARK    1  A    between atoms: N1_4  and  C6_12 
REMARK    2  A    between atoms: N2_5  and  C1_7 
REMARK    3  A    between atoms: C6_12  and  C7_13 
REMARK    4  A    between atoms: C7_13  and  C9_15 
REMARK    5  A    between atoms: C9_15  and  C11_17 
REMARK    6  A    between atoms: C11_17  and  C14_20 
REMARK    7  A    between atoms: C11_17  and  C15_21 
ROOT
ATOM      1  C6  UNK     1      -2.127  38.598 231.101  1.00  0.00     0.272 C 
ENDROOT
BRANCH   1   2
ATOM      2  N1  UNK     1      -1.415  37.842 232.132  1.00  0.00     0.088 N 
ATOM      3  C4  UNK     1      -0.024  37.603 231.725  1.00  0.00     0.274 C 
ATOM      4  C2  UNK     1       0.720  36.769 232.769  1.00  0.00     0.056 C 
ATOM      5  C1  UNK     1       0.662  37.425 234.148  1.00  0.00     0.098 C 
ATOM      6  C3  UNK     1      -0.786  37.744 234.522  1.00  0.00     0.056 C 
ATOM      7  C5  UNK     1      -1.479  38.547 233.420  1.00  0.00     0.274 C 
BRANCH   5   8
ATOM      8  N2  UNK     1       1.283  36.587 235.143  1.00  0.00    -0.293 N 
ATOM      9  C8  UNK     1       2.106  37.034 236.184  1.00  0.00     0.066 A 
ATOM     10  C12 UNK     1       2.501  35.920 236.923  1.00  0.00     0.063 A 
ATOM     11  C13 UNK     1       2.519  38.307 236.522  1.00  0.00     0.032 A 
ATOM     12  N3  UNK     1       1.933  34.782 236.351  1.00  0.00    -0.306 N 
ATOM     13  C16 UNK     1       3.323  36.018 238.024  1.00  0.00     0.032 A 
ATOM     14  C10 UNK     1       1.157  35.173 235.223  1.00  0.00     0.328 A 
ATOM     15  H17 UNK     1       2.061  33.837 236.692  1.00  0.00     0.171 HD
ATOM     16  O1  UNK     1       0.521  34.431 234.487  1.00  0.00    -0.247 OA
ATOM     17  C18 UNK     1       3.751  37.300 238.380  1.00  0.00     0.002 A 
ATOM     18  C17 UNK     1       3.354  38.431 237.637  1.00  0.00     0.002 A 
ENDBRANCH   5   8
ENDBRANCH   1   2
BRANCH   1  19
ATOM     19  C7  UNK     1      -1.135  39.218 230.117  1.00  0.00     0.031 C 
BRANCH  19  20
ATOM     20  C9  UNK     1      -1.295  40.744 230.059  1.00  0.00     0.016 C 
BRANCH  20  21
ATOM     21  C11 UNK     1      -0.713  41.357 228.759  1.00  0.00     0.051 C 
BRANCH  21  22
ATOM     22  C14 UNK     1      -1.762  42.005 227.864  1.00  0.00    -0.049 A 
ATOM     23  C19 UNK     1      -1.347  42.861 226.865  1.00  0.00     0.011 A 
ATOM     24  C23 UNK     1      -2.308  43.453 226.047  1.00  0.00     0.043 A 
ATOM     25  C27 UNK     1      -3.661  43.177 226.245  1.00  0.00     0.116 A 
ATOM     26  F1  UNK     1      -4.583  43.747 225.459  1.00  0.00    -0.206 F 
ATOM     27  C25 UNK     1      -4.053  42.307 227.263  1.00  0.00     0.043 A 
ATOM     28  C21 UNK     1      -3.092  41.714 228.082  1.00  0.00     0.011 A 
ENDBRANCH  21  22
BRANCH  21  29
ATOM     29  C15 UNK     1       0.455  42.306 229.017  1.00  0.00    -0.049 A 
ATOM     30  C20 UNK     1       0.280  43.346 229.903  1.00  0.00     0.011 A 
ATOM     31  C24 UNK     1       1.346  44.212 230.139  1.00  0.00     0.043 A 
ATOM     32  C28 UNK     1       2.561  44.019 229.483  1.00  0.00     0.116 A 
ATOM     33  F2  UNK     1       3.586  44.852 229.708  1.00  0.00    -0.206 F 
ATOM     34  C26 UNK     1       2.710  42.957 228.590  1.00  0.00     0.043 A 
ATOM     35  C22 UNK     1       1.642  42.090 228.354  1.00  0.00     0.011 A 
ENDBRANCH  21  29
ENDBRANCH  20  21
ENDBRANCH  19  20
ENDBRANCH   1  19
TORSDOF 7
ENDMDL
MODEL 3
REMARK VINA RESULT:      -9.5      1.195      2.000
REMARK  7 active torsions:
REMARK  status: ('A' for Active; 'I' for Inactive)
REMARK    1  A    between atoms: N1_4  and  C6_12 
REMARK    2  A    between atoms: N2_5  and  C1_7 
REMARK    3  A    between atoms: C6_12  and  C7_13 
REMARK    4  A    between atoms: C7_13  and  C9_15 
REMARK    5  A    between atoms: C9_15  and  C11_17 
REMARK    6  A    between atoms: C11_17  and  C14_20 
REMARK    7  A    between atoms: C11_17  and  C15_21 
ROOT
ATOM      1  C6  UNK     1      -1.879  38.452 231.048  1.00  0.00     0.272 C 
ENDROOT
BRANCH   1   2
ATOM      2  N1  UNK     1      -0.943  38.248 232.155  1.00  0.00     0.088 N 
ATOM      3  C4  UNK     1      -1.665  37.849 233.371  1.00  0.00     0.274 C 
ATOM      4  C2  UNK     1      -0.707  37.682 234.552  1.00  0.00     0.056 C 
ATOM      5  C1  UNK     1       0.406  36.685 234.228  1.00  0.00     0.098 C 
ATOM      6  C3  UNK     1       1.093  37.067 232.916  1.00  0.00     0.056 C 
ATOM      7  C5  UNK     1       0.075  37.253 231.790  1.00  0.00     0.274 C 
BRANCH   5   8
ATOM      8  N2  UNK     1       1.356  36.607 235.308  1.00  0.00    -0.293 N 
ATOM      9  C8  UNK     1       1.800  35.425 235.916  1.00  0.00     0.066 A 
ATOM     10  C12 UNK     1       2.710  35.775 236.911  1.00  0.00     0.063 A 
ATOM     11  C13 UNK     1       1.475  34.108 235.666  1.00  0.00     0.032 A 
ATOM     12  N3  UNK     1       2.838  37.164 236.931  1.00  0.00    -0.306 N 
ATOM     13  C16 UNK     1       3.336  34.836 237.703  1.00  0.00     0.032 A 
ATOM     14  C10 UNK     1       1.992  37.717 235.928  1.00  0.00     0.328 A 
ATOM     15  H17 UNK     1       3.437  37.681 237.562  1.00  0.00     0.171 HD
ATOM     16  O1  UNK     1       1.856  38.904 235.667  1.00  0.00    -0.247 OA
ATOM     17  C18 UNK     1       3.018  33.496 237.464  1.00  0.00     0.002 A 
ATOM     18  C17 UNK     1       2.097  33.137 236.457  1.00  0.00     0.002 A 
ENDBRANCH   5   8
ENDBRANCH   1   2
BRANCH   1  19
ATOM     19  C7  UNK     1      -2.020  39.942 230.741  1.00  0.00     0.031 C 
BRANCH  19  20
ATOM     20  C9  UNK     1      -1.146  40.345 229.545  1.00  0.00     0.016 C 
BRANCH  20  21
ATOM     21  C11 UNK     1      -1.212  41.864 229.240  1.00  0.00     0.051 C 
BRANCH  21  22
ATOM     22  C14 UNK     1       0.147  42.551 229.250  1.00  0.00    -0.049 A 
ATOM     23  C19 UNK     1       0.311  43.691 230.009  1.00  0.00     0.011 A 
ATOM     24  C23 UNK     1       1.556  44.319 230.018  1.00  0.00     0.043 A 
ATOM     25  C27 UNK     1       2.608  43.794 229.268  1.00  0.00     0.116 A 
ATOM     26  F1  UNK     1       3.804  44.398 229.276  1.00  0.00    -0.206 F 
ATOM     27  C25 UNK     1       2.416  42.640 228.508  1.00  0.00     0.043 A 
ATOM     28  C21 UNK     1       1.170  42.011 228.500  1.00  0.00     0.011 A 
ENDBRANCH  21  22
BRANCH  21  29
ATOM     29  C15 UNK     1      -1.983  42.184 227.962  1.00  0.00    -0.049 A 
ATOM     30  C20 UNK     1      -1.363  42.931 226.984  1.00  0.00     0.011 A 
ATOM     31  C24 UNK     1      -2.066  43.223 225.816  1.00  0.00     0.043 A 
ATOM     32  C28 UNK     1      -3.373  42.762 225.655  1.00  0.00     0.116 A 
ATOM     33  F2  UNK     1      -4.049  43.043 224.533  1.00  0.00    -0.206 F 
ATOM     34  C26 UNK     1      -3.975  42.007 226.661  1.00  0.00     0.043 A 
ATOM     35  C22 UNK     1      -3.271  41.715 227.831  1.00  0.00     0.011 A 
ENDBRANCH  21  29
ENDBRANCH  20  21
ENDBRANCH  19  20
ENDBRANCH   1  19
TORSDOF 7
ENDMDL
MODEL 4
REMARK VINA RESULT:      -8.7      1.807      2.418
REMARK  7 active torsions:
REMARK  status: ('A' for Active; 'I' for Inactive)
REMARK    1  A    between atoms: N1_4  and  C6_12 
REMARK    2  A    between atoms: N2_5  and  C1_7 
REMARK    3  A    between atoms: C6_12  and  C7_13 
REMARK    4  A    between atoms: C7_13  and  C9_15 
REMARK    5  A    between atoms: C9_15  and  C11_17 
REMARK    6  A    between atoms: C11_17  and  C14_20 
REMARK    7  A    between atoms: C11_17  and  C15_21 
ROOT
ATOM      1  C6  UNK     1      -1.532  37.785 231.830  1.00  0.00     0.272 C 
ENDROOT
BRANCH   1   2
ATOM      2  N1  UNK     1      -0.844  37.457 233.079  1.00  0.00     0.088 N 
ATOM      3  C4  UNK     1       0.366  38.277 233.229  1.00  0.00     0.274 C 
ATOM      4  C2  UNK     1       1.127  37.910 234.505  1.00  0.00     0.056 C 
ATOM      5  C1  UNK     1       0.232  38.031 235.738  1.00  0.00     0.098 C 
ATOM      6  C3  UNK     1      -1.060  37.240 235.534  1.00  0.00     0.056 C 
ATOM      7  C5  UNK     1      -1.748  37.630 234.224  1.00  0.00     0.274 C 
BRANCH   5   8
ATOM      8  N2  UNK     1       0.928  37.592 236.922  1.00  0.00    -0.293 N 
ATOM      9  C8  UNK     1       1.665  36.407 237.039  1.00  0.00     0.066 A 
ATOM     10  C12 UNK     1       2.178  36.351 238.333  1.00  0.00     0.063 A 
ATOM     11  C13 UNK     1       1.911  35.405 236.122  1.00  0.00     0.032 A 
ATOM     12  N3  UNK     1       1.767  37.490 239.026  1.00  0.00    -0.306 N 
ATOM     13  C16 UNK     1       2.955  35.302 238.776  1.00  0.00     0.032 A 
ATOM     14  C10 UNK     1       0.974  38.294 238.158  1.00  0.00     0.328 A 
ATOM     15  H17 UNK     1       2.001  37.699 239.988  1.00  0.00     0.171 HD
ATOM     16  O1  UNK     1       0.451  39.364 238.435  1.00  0.00    -0.247 OA
ATOM     17  C18 UNK     1       3.214  34.279 237.859  1.00  0.00     0.002 A 
ATOM     18  C17 UNK     1       2.697  34.330 236.548  1.00  0.00     0.002 A 
ENDBRANCH   5   8
ENDBRANCH   1   2
BRANCH   1  19
ATOM     19  C7  UNK     1      -1.558  39.299 231.621  1.00  0.00     0.031 C 
BRANCH  19  20
ATOM     20  C9  UNK     1      -1.310  39.657 230.148  1.00  0.00     0.016 C 
BRANCH  20  21
ATOM     21  C11 UNK     1      -1.657  41.133 229.824  1.00  0.00     0.051 C 
BRANCH  21  22
ATOM     22  C14 UNK     1      -0.461  41.956 229.363  1.00  0.00    -0.049 A 
ATOM     23  C19 UNK     1       0.455  41.378 228.509  1.00  0.00     0.011 A 
ATOM     24  C23 UNK     1       1.550  42.131 228.088  1.00  0.00     0.043 A 
ATOM     25  C27 UNK     1       1.704  43.446 228.528  1.00  0.00     0.116 A 
ATOM     26  F1  UNK     1       2.756  44.169 228.123  1.00  0.00    -0.206 F 
ATOM     27  C25 UNK     1       0.762  44.007 229.391  1.00  0.00     0.043 A 
ATOM     28  C21 UNK     1      -0.333  43.253 229.813  1.00  0.00     0.011 A 
ENDBRANCH  21  22
BRANCH  21  29
ATOM     29  C15 UNK     1      -2.830  41.273 228.858  1.00  0.00    -0.049 A 
ATOM     30  C20 UNK     1      -2.727  42.170 227.817  1.00  0.00     0.011 A 
ATOM     31  C24 UNK     1      -3.798  42.298 226.933  1.00  0.00     0.043 A 
ATOM     32  C28 UNK     1      -4.946  41.527 227.112  1.00  0.00     0.116 A 
ATOM     33  F2  UNK     1      -5.975  41.650 226.265  1.00  0.00    -0.206 F 
ATOM     34  C26 UNK     1      -5.022  40.627 228.175  1.00  0.00     0.043 A 
ATOM     35  C22 UNK     1      -3.951  40.499 229.060  1.00  0.00     0.011 A 
ENDBRANCH  21  29
ENDBRANCH  20  21
ENDBRANCH  19  20
ENDBRANCH   1  19
TORSDOF 7
ENDMDL
MODEL 5
REMARK VINA RESULT:      -8.5      4.124     10.492
REMARK  7 active torsions:
REMARK  status: ('A' for Active; 'I' for Inactive)
REMARK    1  A    between atoms: N1_4  and  C6_12 
REMARK    2  A    between atoms: N2_5  and  C1_7 
REMARK    3  A    between atoms: C6_12  and  C7_13 
REMARK    4  A    between atoms: C7_13  and  C9_15 
REMARK    5  A    between atoms: C9_15  and  C11_17 
REMARK    6  A    between atoms: C11_17  and  C14_20 
REMARK    7  A    between atoms: C11_17  and  C15_21 
ROOT
ATOM      1  C6  UNK     1      -0.965  36.132 232.879  1.00  0.00     0.272 C 
ENDROOT
BRANCH   1   2
ATOM      2  N1  UNK     1      -1.365  37.174 231.933  1.00  0.00     0.088 N 
ATOM      3  C4  UNK     1      -1.546  38.456 232.628  1.00  0.00     0.274 C 
ATOM      4  C2  UNK     1      -2.016  39.546 231.662  1.00  0.00     0.056 C 
ATOM      5  C1  UNK     1      -1.052  39.697 230.485  1.00  0.00     0.098 C 
ATOM      6  C3  UNK     1      -0.809  38.340 229.823  1.00  0.00     0.056 C 
ATOM      7  C5  UNK     1      -0.379  37.291 230.850  1.00  0.00     0.274 C 
BRANCH   5   8
ATOM      8  N2  UNK     1      -1.551  40.657 229.533  1.00  0.00    -0.293 N 
ATOM      9  C8  UNK     1      -0.814  41.712 228.981  1.00  0.00     0.066 A 
ATOM     10  C12 UNK     1      -1.651  42.405 228.108  1.00  0.00     0.063 A 
ATOM     11  C13 UNK     1       0.496  42.096 229.180  1.00  0.00     0.032 A 
ATOM     12  N3  UNK     1      -2.905  41.793 228.112  1.00  0.00    -0.306 N 
ATOM     13  C16 UNK     1      -1.229  43.508 227.399  1.00  0.00     0.032 A 
ATOM     14  C10 UNK     1      -2.871  40.683 229.005  1.00  0.00     0.328 A 
ATOM     15  H17 UNK     1      -3.700  42.098 227.565  1.00  0.00     0.171 HD
ATOM     16  O1  UNK     1      -3.796  39.922 229.252  1.00  0.00    -0.247 OA
ATOM     17  C18 UNK     1       0.096  43.911 227.589  1.00  0.00     0.002 A 
ATOM     18  C17 UNK     1       0.948  43.213 228.470  1.00  0.00     0.002 A 
ENDBRANCH   5   8
ENDBRANCH   1   2
BRANCH   1  19
ATOM     19  C7  UNK     1       0.359  36.502 233.547  1.00  0.00     0.031 C 
BRANCH  19  20
ATOM     20  C9  UNK     1       0.768  35.446 234.584  1.00  0.00     0.016 C 
BRANCH  20  21
ATOM     21  C11 UNK     1       1.800  35.983 235.610  1.00  0.00     0.051 C 
BRANCH  21  22
ATOM     22  C14 UNK     1       1.272  37.125 236.469  1.00  0.00    -0.049 A 
ATOM     23  C19 UNK     1       0.129  36.923 237.213  1.00  0.00     0.011 A 
ATOM     24  C23 UNK     1      -0.354  37.969 237.999  1.00  0.00     0.043 A 
ATOM     25  C27 UNK     1       0.316  39.192 238.023  1.00  0.00     0.116 A 
ATOM     26  F1  UNK     1      -0.149  40.196 238.778  1.00  0.00    -0.206 F 
ATOM     27  C25 UNK     1       1.471  39.370 237.260  1.00  0.00     0.043 A 
ATOM     28  C21 UNK     1       1.955  38.323 236.474  1.00  0.00     0.011 A 
ENDBRANCH  21  22
BRANCH  21  29
ATOM     29  C15 UNK     1       2.416  34.884 236.470  1.00  0.00    -0.049 A 
ATOM     30  C20 UNK     1       2.911  35.214 237.713  1.00  0.00     0.011 A 
ATOM     31  C24 UNK     1       3.473  34.210 238.500  1.00  0.00     0.043 A 
ATOM     32  C28 UNK     1       3.527  32.900 238.025  1.00  0.00     0.116 A 
ATOM     33  F2  UNK     1       4.068  31.935 238.780  1.00  0.00    -0.206 F 
ATOM     34  C26 UNK     1       3.019  32.594 236.763  1.00  0.00     0.043 A 
ATOM     35  C22 UNK     1       2.456  33.599 235.975  1.00  0.00     0.011 A 
ENDBRANCH  21  29
ENDBRANCH  20  21
ENDBRANCH  19  20
ENDBRANCH   1  19
TORSDOF 7
ENDMDL
MODEL 6
REMARK VINA RESULT:      -8.4      2.720      4.555
REMARK  7 active torsions:
REMARK  status: ('A' for Active; 'I' for Inactive)
REMARK    1  A    between atoms: N1_4  and  C6_12 
REMARK    2  A    between atoms: N2_5  and  C1_7 
REMARK    3  A    between atoms: C6_12  and  C7_13 
REMARK    4  A    between atoms: C7_13  and  C9_15 
REMARK    5  A    between atoms: C9_15  and  C11_17 
REMARK    6  A    between atoms: C11_17  and  C14_20 
REMARK    7  A    between atoms: C11_17  and  C15_21 
ROOT
ATOM      1  C6  UNK     1      -2.327  38.370 233.743  1.00  0.00     0.272 C 
ENDROOT
BRANCH   1   2
ATOM      2  N1  UNK     1      -1.305  37.437 234.217  1.00  0.00     0.088 N 
ATOM      3  C4  UNK     1       0.009  38.093 234.263  1.00  0.00     0.274 C 
ATOM      4  C2  UNK     1       1.099  37.116 234.707  1.00  0.00     0.056 C 
ATOM      5  C1  UNK     1       0.760  36.483 236.057  1.00  0.00     0.098 C 
ATOM      6  C3  UNK     1      -0.643  35.877 236.020  1.00  0.00     0.056 C 
ATOM      7  C5  UNK     1      -1.675  36.895 235.532  1.00  0.00     0.274 C 
BRANCH   5   8
ATOM      8  N2  UNK     1       1.743  35.495 236.422  1.00  0.00    -0.293 N 
ATOM      9  C8  UNK     1       1.899  34.241 235.816  1.00  0.00     0.066 A 
ATOM     10  C12 UNK     1       2.953  33.589 236.453  1.00  0.00     0.063 A 
ATOM     11  C13 UNK     1       1.206  33.650 234.780  1.00  0.00     0.032 A 
ATOM     12  N3  UNK     1       3.456  34.424 237.451  1.00  0.00    -0.306 N 
ATOM     13  C16 UNK     1       3.365  32.325 236.093  1.00  0.00     0.032 A 
ATOM     14  C10 UNK     1       2.710  35.637 237.455  1.00  0.00     0.328 A 
ATOM     15  H17 UNK     1       4.226  34.192 238.066  1.00  0.00     0.171 HD
ATOM     16  O1  UNK     1       2.880  36.592 238.199  1.00  0.00    -0.247 OA
ATOM     17  C18 UNK     1       2.674  31.711 235.045  1.00  0.00     0.002 A 
ATOM     18  C17 UNK     1       1.606  32.366 234.396  1.00  0.00     0.002 A 
ENDBRANCH   5   8
ENDBRANCH   1   2
BRANCH   1  19
ATOM     19  C7  UNK     1      -3.132  37.742 232.606  1.00  0.00     0.031 C 
BRANCH  19  20
ATOM     20  C9  UNK     1      -3.164  38.664 231.377  1.00  0.00     0.016 C 
BRANCH  20  21
ATOM     21  C11 UNK     1      -1.747  39.020 230.859  1.00  0.00     0.051 C 
BRANCH  21  22
ATOM     22  C14 UNK     1      -0.991  37.832 230.278  1.00  0.00    -0.049 A 
ATOM     23  C19 UNK     1       0.143  37.384 230.923  1.00  0.00     0.011 A 
ATOM     24  C23 UNK     1       0.834  36.297 230.390  1.00  0.00     0.043 A 
ATOM     25  C27 UNK     1       0.378  35.683 229.224  1.00  0.00     0.116 A 
ATOM     26  F1  UNK     1       1.042  34.639 228.712  1.00  0.00    -0.206 F 
ATOM     27  C25 UNK     1      -0.772  36.155 228.591  1.00  0.00     0.043 A 
ATOM     28  C21 UNK     1      -1.465  37.243 229.125  1.00  0.00     0.011 A 
ENDBRANCH  21  22
BRANCH  21  29
ATOM     29  C15 UNK     1      -1.742  40.203 229.895  1.00  0.00    -0.049 A 
ATOM     30  C20 UNK     1      -0.543  40.814 229.601  1.00  0.00     0.011 A 
ATOM     31  C24 UNK     1      -0.539  41.894 228.720  1.00  0.00     0.043 A 
ATOM     32  C28 UNK     1      -1.734  42.338 228.155  1.00  0.00     0.116 A 
ATOM     33  F2  UNK     1      -1.730  43.377 227.309  1.00  0.00    -0.206 F 
ATOM     34  C26 UNK     1      -2.933  41.701 228.470  1.00  0.00     0.043 A 
ATOM     35  C22 UNK     1      -2.938  40.619 229.353  1.00  0.00     0.011 A 
ENDBRANCH  21  29
ENDBRANCH  20  21
ENDBRANCH  19  20
ENDBRANCH   1  19
TORSDOF 7
ENDMDL
MODEL 7
REMARK VINA RESULT:      -8.4      2.420      4.036
REMARK  7 active torsions:
REMARK  status: ('A' for Active; 'I' for Inactive)
REMARK    1  A    between atoms: N1_4  and  C6_12 
REMARK    2  A    between atoms: N2_5  and  C1_7 
REMARK    3  A    between atoms: C6_12  and  C7_13 
REMARK    4  A    between atoms: C7_13  and  C9_15 
REMARK    5  A    between atoms: C9_15  and  C11_17 
REMARK    6  A    between atoms: C11_17  and  C14_20 
REMARK    7  A    between atoms: C11_17  and  C15_21 
ROOT
ATOM      1  C6  UNK     1      -3.629  37.584 233.294  1.00  0.00     0.272 C 
ENDROOT
BRANCH   1   2
ATOM      2  N1  UNK     1      -2.353  37.230 233.916  1.00  0.00     0.088 N 
ATOM      3  C4  UNK     1      -1.514  38.425 234.081  1.00  0.00     0.274 C 
ATOM      4  C2  UNK     1      -0.154  38.066 234.682  1.00  0.00     0.056 C 
ATOM      5  C1  UNK     1      -0.312  37.325 236.010  1.00  0.00     0.098 C 
ATOM      6  C3  UNK     1      -1.254  36.132 235.841  1.00  0.00     0.056 C 
ATOM      7  C5  UNK     1      -2.578  36.556 235.202  1.00  0.00     0.274 C 
BRANCH   5   8
ATOM      8  N2  UNK     1       0.969  36.907 236.521  1.00  0.00    -0.293 N 
ATOM      9  C8  UNK     1       1.688  37.550 237.536  1.00  0.00     0.066 A 
ATOM     10  C12 UNK     1       2.869  36.838 237.738  1.00  0.00     0.063 A 
ATOM     11  C13 UNK     1       1.391  38.678 238.273  1.00  0.00     0.032 A 
ATOM     12  N3  UNK     1       2.893  35.756 236.857  1.00  0.00    -0.306 N 
ATOM     13  C16 UNK     1       3.806  37.212 238.675  1.00  0.00     0.032 A 
ATOM     14  C10 UNK     1       1.704  35.774 236.074  1.00  0.00     0.328 A 
ATOM     15  H17 UNK     1       3.641  35.078 236.794  1.00  0.00     0.171 HD
ATOM     16  O1  UNK     1       1.395  34.973 235.204  1.00  0.00    -0.247 OA
ATOM     17  C18 UNK     1       3.522  38.353 239.431  1.00  0.00     0.002 A 
ATOM     18  C17 UNK     1       2.329  39.078 239.231  1.00  0.00     0.002 A 
ENDBRANCH   5   8
ENDBRANCH   1   2
BRANCH   1  19
ATOM     19  C7  UNK     1      -3.578  37.317 231.790  1.00  0.00     0.031 C 
BRANCH  19  20
ATOM     20  C9  UNK     1      -3.490  38.630 230.999  1.00  0.00     0.016 C 
BRANCH  20  21
ATOM     21  C11 UNK     1      -2.028  39.039 230.680  1.00  0.00     0.051 C 
BRANCH  21  22
ATOM     22  C14 UNK     1      -1.163  37.885 230.189  1.00  0.00    -0.049 A 
ATOM     23  C19 UNK     1      -1.472  37.288 228.985  1.00  0.00     0.011 A 
ATOM     24  C23 UNK     1      -0.681  36.231 228.536  1.00  0.00     0.043 A 
ATOM     25  C27 UNK     1       0.401  35.796 229.300  1.00  0.00     0.116 A 
ATOM     26  F1  UNK     1       1.161  34.781 228.869  1.00  0.00    -0.206 F 
ATOM     27  C25 UNK     1       0.693  36.418 230.515  1.00  0.00     0.043 A 
ATOM     28  C21 UNK     1      -0.099  37.475 230.964  1.00  0.00     0.011 A 
ENDBRANCH  21  22
BRANCH  21  29
ATOM     29  C15 UNK     1      -1.934  40.238 229.741  1.00  0.00    -0.049 A 
ATOM     30  C20 UNK     1      -3.062  40.634 229.056  1.00  0.00     0.011 A 
ATOM     31  C24 UNK     1      -2.977  41.729 228.199  1.00  0.00     0.043 A 
ATOM     32  C28 UNK     1      -1.765  42.403 228.045  1.00  0.00     0.116 A 
ATOM     33  F2  UNK     1      -1.683  43.455 227.220  1.00  0.00    -0.206 F 
ATOM     34  C26 UNK     1      -0.639  41.981 228.751  1.00  0.00     0.043 A 
ATOM     35  C22 UNK     1      -0.724  40.883 229.609  1.00  0.00     0.011 A 
ENDBRANCH  21  29
ENDBRANCH  20  21
ENDBRANCH  19  20
ENDBRANCH   1  19
TORSDOF 7
ENDMDL
MODEL 8
REMARK VINA RESULT:      -8.4      2.749      5.052
REMARK  7 active torsions:
REMARK  status: ('A' for Active; 'I' for Inactive)
REMARK    1  A    between atoms: N1_4  and  C6_12 
REMARK    2  A    between atoms: N2_5  and  C1_7 
REMARK    3  A    between atoms: C6_12  and  C7_13 
REMARK    4  A    between atoms: C7_13  and  C9_15 
REMARK    5  A    between atoms: C9_15  and  C11_17 
REMARK    6  A    between atoms: C11_17  and  C14_20 
REMARK    7  A    between atoms: C11_17  and  C15_21 
ROOT
ATOM      1  C6  UNK     1      -2.219  37.056 234.095  1.00  0.00     0.272 C 
ENDROOT
BRANCH   1   2
ATOM      2  N1  UNK     1      -1.265  37.069 235.204  1.00  0.00     0.088 N 
ATOM      3  C4  UNK     1      -1.916  36.635 236.447  1.00  0.00     0.274 C 
ATOM      4  C2  UNK     1      -0.946  36.693 237.629  1.00  0.00     0.056 C 
ATOM      5  C1  UNK     1       0.310  35.865 237.355  1.00  0.00     0.098 C 
ATOM      6  C3  UNK     1       0.931  36.271 236.018  1.00  0.00     0.056 C 
ATOM      7  C5  UNK     1      -0.102  36.227 234.891  1.00  0.00     0.274 C 
BRANCH   5   8
ATOM      8  N2  UNK     1       1.260  36.003 238.431  1.00  0.00    -0.293 N 
ATOM      9  C8  UNK     1       2.119  37.092 238.622  1.00  0.00     0.066 A 
ATOM     10  C12 UNK     1       2.873  36.843 239.768  1.00  0.00     0.063 A 
ATOM     11  C13 UNK     1       2.283  38.249 237.888  1.00  0.00     0.032 A 
ATOM     12  N3  UNK     1       2.492  35.608 240.293  1.00  0.00    -0.306 N 
ATOM     13  C16 UNK     1       3.821  37.727 240.235  1.00  0.00     0.032 A 
ATOM     14  C10 UNK     1       1.473  35.053 239.468  1.00  0.00     0.328 A 
ATOM     15  H17 UNK     1       2.885  35.187 241.125  1.00  0.00     0.171 HD
ATOM     16  O1  UNK     1       0.909  33.980 239.633  1.00  0.00    -0.247 OA
ATOM     17  C18 UNK     1       4.000  38.905 239.504  1.00  0.00     0.002 A 
ATOM     18  C17 UNK     1       3.240  39.162 238.343  1.00  0.00     0.002 A 
ENDBRANCH   5   8
ENDBRANCH   1   2
BRANCH   1  19
ATOM     19  C7  UNK     1      -2.611  38.483 233.716  1.00  0.00     0.031 C 
BRANCH  19  20
ATOM     20  C9  UNK     1      -1.683  39.040 232.626  1.00  0.00     0.016 C 
BRANCH  20  21
ATOM     21  C11 UNK     1      -2.107  38.603 231.199  1.00  0.00     0.051 C 
BRANCH  21  22
ATOM     22  C14 UNK     1      -2.320  39.767 230.241  1.00  0.00    -0.049 A 
ATOM     23  C19 UNK     1      -1.297  40.674 230.058  1.00  0.00     0.011 A 
ATOM     24  C23 UNK     1      -1.493  41.740 229.181  1.00  0.00     0.043 A 
ATOM     25  C27 UNK     1      -2.706  41.875 228.505  1.00  0.00     0.116 A 
ATOM     26  F1  UNK     1      -2.894  42.899 227.663  1.00  0.00    -0.206 F 
ATOM     27  C25 UNK     1      -3.724  40.943 228.708  1.00  0.00     0.043 A 
ATOM     28  C21 UNK     1      -3.528  39.876 229.586  1.00  0.00     0.011 A 
ENDBRANCH  21  22
BRANCH  21  29
ATOM     29  C15 UNK     1      -1.178  37.553 230.596  1.00  0.00    -0.049 A 
ATOM     30  C20 UNK     1       0.004  37.264 231.242  1.00  0.00     0.011 A 
ATOM     31  C24 UNK     1       0.852  36.305 230.691  1.00  0.00     0.043 A 
ATOM     32  C28 UNK     1       0.499  35.658 229.507  1.00  0.00     0.116 A 
ATOM     33  F2  UNK     1       1.315  34.737 228.976  1.00  0.00    -0.206 F 
ATOM     34  C26 UNK     1      -0.704  35.971 228.874  1.00  0.00     0.043 A 
ATOM     35  C22 UNK     1      -1.553  36.931 229.425  1.00  0.00     0.011 A 
ENDBRANCH  21  29
ENDBRANCH  20  21
ENDBRANCH  19  20
ENDBRANCH   1  19
TORSDOF 7
ENDMDL
MODEL 9
REMARK VINA RESULT:      -8.4      4.216     10.736
REMARK  7 active torsions:
REMARK  status: ('A' for Active; 'I' for Inactive)
REMARK    1  A    between atoms: N1_4  and  C6_12 
REMARK    2  A    between atoms: N2_5  and  C1_7 
REMARK    3  A    between atoms: C6_12  and  C7_13 
REMARK    4  A    between atoms: C7_13  and  C9_15 
REMARK    5  A    between atoms: C9_15  and  C11_17 
REMARK    6  A    between atoms: C11_17  and  C14_20 
REMARK    7  A    between atoms: C11_17  and  C15_21 
ROOT
ATOM      1  C6  UNK     1      -0.641  35.821 232.722  1.00  0.00     0.272 C 
ENDROOT
BRANCH   1   2
ATOM      2  N1  UNK     1      -1.192  36.878 231.872  1.00  0.00     0.088 N 
ATOM      3  C4  UNK     1      -1.557  38.049 232.681  1.00  0.00     0.274 C 
ATOM      4  C2  UNK     1      -2.182  39.144 231.815  1.00  0.00     0.056 C 
ATOM      5  C1  UNK     1      -1.254  39.544 230.669  1.00  0.00     0.098 C 
ATOM      6  C3  UNK     1      -0.815  38.305 229.887  1.00  0.00     0.056 C 
ATOM      7  C5  UNK     1      -0.235  37.238 230.817  1.00  0.00     0.274 C 
BRANCH   5   8
ATOM      8  N2  UNK     1      -1.889  40.506 229.804  1.00  0.00    -0.293 N 
ATOM      9  C8  UNK     1      -3.079  40.299 229.095  1.00  0.00     0.066 A 
ATOM     10  C12 UNK     1      -3.357  41.464 228.381  1.00  0.00     0.063 A 
ATOM     11  C13 UNK     1      -3.910  39.199 229.032  1.00  0.00     0.032 A 
ATOM     12  N3  UNK     1      -2.350  42.395 228.638  1.00  0.00    -0.306 N 
ATOM     13  C16 UNK     1      -4.467  41.589 227.575  1.00  0.00     0.032 A 
ATOM     14  C10 UNK     1      -1.407  41.816 229.535  1.00  0.00     0.328 A 
ATOM     15  H17 UNK     1      -2.308  43.326 228.244  1.00  0.00     0.171 HD
ATOM     16  O1  UNK     1      -0.399  42.351 229.974  1.00  0.00    -0.247 OA
ATOM     17  C18 UNK     1      -5.320  40.485 227.500  1.00  0.00     0.002 A 
ATOM     18  C17 UNK     1      -5.044  39.303 228.220  1.00  0.00     0.002 A 
ENDBRANCH   5   8
ENDBRANCH   1   2
BRANCH   1  19
ATOM     19  C7  UNK     1       0.420  36.393 233.660  1.00  0.00     0.031 C 
BRANCH  19  20
ATOM     20  C9  UNK     1       0.852  35.354 234.705  1.00  0.00     0.016 C 
BRANCH  20  21
ATOM     21  C11 UNK     1       1.874  35.920 235.725  1.00  0.00     0.051 C 
BRANCH  21  22
ATOM     22  C14 UNK     1       1.334  37.078 236.554  1.00  0.00    -0.049 A 
ATOM     23  C19 UNK     1       0.138  36.917 237.222  1.00  0.00     0.011 A 
ATOM     24  C23 UNK     1      -0.357  37.977 237.980  1.00  0.00     0.043 A 
ATOM     25  C27 UNK     1       0.355  39.174 238.054  1.00  0.00     0.116 A 
ATOM     26  F1  UNK     1      -0.121  40.193 238.782  1.00  0.00    -0.206 F 
ATOM     27  C25 UNK     1       1.563  39.312 237.369  1.00  0.00     0.043 A 
ATOM     28  C21 UNK     1       2.058  38.250 236.610  1.00  0.00     0.011 A 
ENDBRANCH  21  22
BRANCH  21  29
ATOM     29  C15 UNK     1       2.489  34.844 236.615  1.00  0.00    -0.049 A 
ATOM     30  C20 UNK     1       2.882  35.184 237.891  1.00  0.00     0.011 A 
ATOM     31  C24 UNK     1       3.444  34.201 238.704  1.00  0.00     0.043 A 
ATOM     32  C28 UNK     1       3.600  32.902 238.222  1.00  0.00     0.116 A 
ATOM     33  F2  UNK     1       4.141  31.957 239.003  1.00  0.00    -0.206 F 
ATOM     34  C26 UNK     1       3.193  32.585 236.926  1.00  0.00     0.043 A 
ATOM     35  C22 UNK     1       2.631  33.570 236.112  1.00  0.00     0.011 A 
ENDBRANCH  21  29
ENDBRANCH  20  21
ENDBRANCH  19  20
ENDBRANCH   1  19
TORSDOF 7
ENDMDL
