MODEL 1
REMARK VINA RESULT:      -5.4      0.000      0.000
REMARK  8 active torsions:
REMARK  status: ('A' for Active; 'I' for Inactive)
REMARK    1  A    between atoms: O1_1  and  C7_15 
REMARK    2  A    between atoms: O1_1  and  C14_22 
REMARK    3  A    between atoms: O2_2  and  C11_19 
REMARK    4  A    between atoms: N2_8  and  C8_16 
REMARK    5  A    between atoms: C1_9  and  C4_12 
REMARK    6  A    between atoms: C2_10  and  C7_15 
REMARK    7  A    between atoms: C3_11  and  C11_19 
REMARK    8  A    between atoms: C13_21  and  C14_22 
ROOT
ATOM      1  N1  UNK     1       3.065  31.427 235.920  1.00  0.00    -0.362 N 
ATOM      2  C1  UNK     1       1.756  33.345 237.544  1.00  0.00     0.103 C 
ATOM      3  C2  UNK     1       1.324  33.020 236.109  1.00  0.00     0.052 C 
ATOM      4  C3  UNK     1       2.858  32.414 238.061  1.00  0.00     0.052 C 
ATOM      5  C5  UNK     1       1.990  32.106 235.368  1.00  0.00     0.018 C 
ATOM      6  C6  UNK     1       3.473  31.533 237.240  1.00  0.00     0.018 C 
ATOM      7  C10 UNK     1       1.673  31.741 233.942  1.00  0.00     0.069 C 
ATOM      8  C12 UNK     1       4.598  30.613 237.632  1.00  0.00     0.069 C 
ATOM      9  H2  UNK     1       3.546  30.756 235.333  1.00  0.00     0.165 HD
ENDROOT
BRANCH   2  10
ATOM     10  C4  UNK     1       2.211  34.773 237.631  1.00  0.00    -0.012 A 
ATOM     11  C8  UNK     1       1.569  35.682 238.468  1.00  0.00     0.110 A 
ATOM     12  C15 UNK     1       2.014  37.002 238.526  1.00  0.00     0.037 A 
ATOM     13  C17 UNK     1       3.098  37.409 237.746  1.00  0.00     0.002 A 
ATOM     14  C16 UNK     1       3.737  36.495 236.910  1.00  0.00     0.001 A 
ATOM     15  C9  UNK     1       3.292  35.173 236.851  1.00  0.00     0.011 A 
BRANCH  11  16
ATOM     16  N2  UNK     1       0.462  35.290 239.270  1.00  0.00    -0.115 N 
ATOM     17  O5  UNK     1      -0.693  35.375 238.789  1.00  0.00    -0.532 OA
ATOM     18  O6  UNK     1       0.673  34.871 240.432  1.00  0.00    -0.532 OA
ENDBRANCH  11  16
ENDBRANCH   2  10
BRANCH   3  19
ATOM     19  C7  UNK     1       0.119  33.703 235.614  1.00  0.00     0.292 C 
ATOM     20  O3  UNK     1      -1.000  33.476 236.036  1.00  0.00    -0.259 OA
BRANCH  19  21
ATOM     21  O1  UNK     1       0.490  34.583 234.653  1.00  0.00    -0.317 OA
BRANCH  21  22
ATOM     22  C14 UNK     1       0.043  35.928 234.856  1.00  0.00     0.183 C 
BRANCH  22  23
ATOM     23  C13 UNK     1       1.096  36.911 234.334  1.00  0.00     0.002 C 
ATOM     24  C18 UNK     1       0.882  38.294 234.946  1.00  0.00     0.011 C 
ATOM     25  C19 UNK     1       1.071  36.995 232.807  1.00  0.00     0.011 C 
ENDBRANCH  22  23
ENDBRANCH  21  22
ENDBRANCH  19  21
ENDBRANCH   3  19
BRANCH   4  26
ATOM     26  C11 UNK     1       3.171  32.497 239.497  1.00  0.00     0.291 C 
ATOM     27  O4  UNK     1       4.113  33.128 239.940  1.00  0.00    -0.260 OA
BRANCH  26  28
ATOM     28  O2  UNK     1       2.250  31.773 240.178  1.00  0.00    -0.323 OA
ATOM     29  C20 UNK     1       2.780  30.690 240.950  1.00  0.00     0.213 C 
ENDBRANCH  26  28
ENDBRANCH   4  26
TORSDOF 8
ENDMDL
MODEL 2
REMARK VINA RESULT:      -5.4      2.443      4.546
REMARK  8 active torsions:
REMARK  status: ('A' for Active; 'I' for Inactive)
REMARK    1  A    between atoms: O1_1  and  C7_15 
REMARK    2  A    between atoms: O1_1  and  C14_22 
REMARK    3  A    between atoms: O2_2  and  C11_19 
REMARK    4  A    between atoms: N2_8  and  C8_16 
REMARK    5  A    between atoms: C1_9  and  C4_12 
REMARK    6  A    between atoms: C2_10  and  C7_15 
REMARK    7  A    between atoms: C3_11  and  C11_19 
REMARK    8  A    between atoms: C13_21  and  C14_22 
ROOT
ATOM      1  N1  UNK     1      -2.275  35.527 237.425  1.00  0.00    -0.362 N 
ATOM      2  C1  UNK     1       0.556  35.429 237.507  1.00  0.00     0.103 C 
ATOM      3  C2  UNK     1      -0.230  36.236 236.466  1.00  0.00     0.052 C 
ATOM      4  C3  UNK     1      -0.340  34.819 238.589  1.00  0.00     0.052 C 
ATOM      5  C5  UNK     1      -1.582  36.241 236.459  1.00  0.00     0.018 C 
ATOM      6  C6  UNK     1      -1.688  34.867 238.492  1.00  0.00     0.018 C 
ATOM      7  C10 UNK     1      -2.446  36.965 235.462  1.00  0.00     0.069 C 
ATOM      8  C12 UNK     1      -2.656  34.256 239.469  1.00  0.00     0.069 C 
ATOM      9  H2  UNK     1      -3.287  35.545 237.384  1.00  0.00     0.165 HD
ENDROOT
BRANCH   2  10
ATOM     10  C4  UNK     1       1.346  34.348 236.827  1.00  0.00    -0.012 A 
ATOM     11  C8  UNK     1       2.735  34.315 236.907  1.00  0.00     0.110 A 
ATOM     12  C15 UNK     1       3.440  33.298 236.264  1.00  0.00     0.037 A 
ATOM     13  C17 UNK     1       2.755  32.320 235.542  1.00  0.00     0.002 A 
ATOM     14  C16 UNK     1       1.363  32.359 235.466  1.00  0.00     0.001 A 
ATOM     15  C9  UNK     1       0.656  33.375 236.109  1.00  0.00     0.011 A 
BRANCH  11  16
ATOM     16  N2  UNK     1       3.455  35.302 237.635  1.00  0.00    -0.115 N 
ATOM     17  O5  UNK     1       3.898  36.303 237.022  1.00  0.00    -0.532 OA
ATOM     18  O6  UNK     1       3.625  35.143 238.866  1.00  0.00    -0.532 OA
ENDBRANCH  11  16
ENDBRANCH   2  10
BRANCH   3  19
ATOM     19  C7  UNK     1       0.562  37.048 235.528  1.00  0.00     0.292 C 
ATOM     20  O3  UNK     1       1.074  36.597 234.521  1.00  0.00    -0.259 OA
BRANCH  19  21
ATOM     21  O1  UNK     1       0.599  38.321 235.990  1.00  0.00    -0.317 OA
BRANCH  21  22
ATOM     22  C14 UNK     1       1.864  38.739 236.515  1.00  0.00     0.183 C 
BRANCH  22  23
ATOM     23  C13 UNK     1       1.664  39.433 237.866  1.00  0.00     0.002 C 
ATOM     24  C18 UNK     1       2.318  38.622 238.982  1.00  0.00     0.011 C 
ATOM     25  C19 UNK     1       0.180  39.651 238.166  1.00  0.00     0.011 C 
ENDBRANCH  22  23
ENDBRANCH  21  22
ENDBRANCH  19  21
ENDBRANCH   3  19
BRANCH   4  26
ATOM     26  C11 UNK     1       0.341  34.228 239.753  1.00  0.00     0.291 C 
ATOM     27  O4  UNK     1       0.819  34.891 240.655  1.00  0.00    -0.260 OA
BRANCH  26  28
ATOM     28  O2  UNK     1       0.323  32.880 239.621  1.00  0.00    -0.323 OA
ATOM     29  C20 UNK     1       1.586  32.235 239.816  1.00  0.00     0.213 C 
ENDBRANCH  26  28
ENDBRANCH   4  26
TORSDOF 8
ENDMDL
MODEL 3
REMARK VINA RESULT:      -5.3      2.706      4.326
REMARK  8 active torsions:
REMARK  status: ('A' for Active; 'I' for Inactive)
REMARK    1  A    between atoms: O1_1  and  C7_15 
REMARK    2  A    between atoms: O1_1  and  C14_22 
REMARK    3  A    between atoms: O2_2  and  C11_19 
REMARK    4  A    between atoms: N2_8  and  C8_16 
REMARK    5  A    between atoms: C1_9  and  C4_12 
REMARK    6  A    between atoms: C2_10  and  C7_15 
REMARK    7  A    between atoms: C3_11  and  C11_19 
REMARK    8  A    between atoms: C13_21  and  C14_22 
ROOT
ATOM      1  N1  UNK     1       0.537  34.513 232.859  1.00  0.00    -0.362 N 
ATOM      2  C1  UNK     1      -0.086  35.120 235.556  1.00  0.00     0.103 C 
ATOM      3  C2  UNK     1       0.284  36.184 234.516  1.00  0.00     0.052 C 
ATOM      4  C3  UNK     1      -0.244  33.722 234.949  1.00  0.00     0.052 C 
ATOM      5  C5  UNK     1       0.588  35.844 233.243  1.00  0.00     0.018 C 
ATOM      6  C6  UNK     1       0.094  33.475 233.662  1.00  0.00     0.018 C 
ATOM      7  C10 UNK     1       1.000  36.802 232.158  1.00  0.00     0.069 C 
ATOM      8  C12 UNK     1       0.027  32.132 232.985  1.00  0.00     0.069 C 
ATOM      9  H2  UNK     1       0.779  34.292 231.900  1.00  0.00     0.165 HD
ENDROOT
BRANCH   2  10
ATOM     10  C4  UNK     1       0.943  35.090 236.648  1.00  0.00    -0.012 A 
ATOM     11  C8  UNK     1       0.589  35.310 237.976  1.00  0.00     0.110 A 
ATOM     12  C15 UNK     1       1.569  35.277 238.968  1.00  0.00     0.037 A 
ATOM     13  C17 UNK     1       2.898  35.026 238.628  1.00  0.00     0.002 A 
ATOM     14  C16 UNK     1       3.248  34.806 237.296  1.00  0.00     0.001 A 
ATOM     15  C9  UNK     1       2.268  34.839 236.303  1.00  0.00     0.011 A 
BRANCH  11  16
ATOM     16  N2  UNK     1      -0.760  35.570 238.345  1.00  0.00    -0.115 N 
ATOM     17  O5  UNK     1      -1.242  36.705 238.117  1.00  0.00    -0.532 OA
ATOM     18  O6  UNK     1      -1.427  34.657 238.886  1.00  0.00    -0.532 OA
ENDBRANCH  11  16
ENDBRANCH   2  10
BRANCH   3  19
ATOM     19  C7  UNK     1       0.227  37.586 234.960  1.00  0.00     0.292 C 
ATOM     20  O3  UNK     1      -0.800  38.237 234.990  1.00  0.00    -0.259 OA
BRANCH  19  21
ATOM     21  O1  UNK     1       1.477  37.976 235.307  1.00  0.00    -0.317 OA
BRANCH  21  22
ATOM     22  C14 UNK     1       1.540  39.127 236.156  1.00  0.00     0.183 C 
BRANCH  22  23
ATOM     23  C13 UNK     1       1.674  38.691 237.618  1.00  0.00     0.002 C 
ATOM     24  C18 UNK     1       0.707  39.480 238.499  1.00  0.00     0.011 C 
ATOM     25  C19 UNK     1       3.109  38.857 238.120  1.00  0.00     0.011 C 
ENDBRANCH  22  23
ENDBRANCH  21  22
ENDBRANCH  19  21
ENDBRANCH   3  19
BRANCH   4  26
ATOM     26  C11 UNK     1      -0.823  32.686 235.819  1.00  0.00     0.291 C 
ATOM     27  O4  UNK     1      -0.176  31.769 236.290  1.00  0.00    -0.260 OA
BRANCH  26  28
ATOM     28  O2  UNK     1      -2.142  32.951 235.980  1.00  0.00    -0.323 OA
ATOM     29  C20 UNK     1      -3.025  32.126 235.212  1.00  0.00     0.213 C 
ENDBRANCH  26  28
ENDBRANCH   4  26
TORSDOF 8
ENDMDL
MODEL 4
REMARK VINA RESULT:      -5.2      1.324      1.837
REMARK  8 active torsions:
REMARK  status: ('A' for Active; 'I' for Inactive)
REMARK    1  A    between atoms: O1_1  and  C7_15 
REMARK    2  A    between atoms: O1_1  and  C14_22 
REMARK    3  A    between atoms: O2_2  and  C11_19 
REMARK    4  A    between atoms: N2_8  and  C8_16 
REMARK    5  A    between atoms: C1_9  and  C4_12 
REMARK    6  A    between atoms: C2_10  and  C7_15 
REMARK    7  A    between atoms: C3_11  and  C11_19 
REMARK    8  A    between atoms: C13_21  and  C14_22 
ROOT
ATOM      1  N1  UNK     1       3.462  32.066 236.980  1.00  0.00    -0.362 N 
ATOM      2  C1  UNK     1       1.617  34.131 237.583  1.00  0.00     0.103 C 
ATOM      3  C2  UNK     1       1.614  33.357 236.259  1.00  0.00     0.052 C 
ATOM      4  C3  UNK     1       2.610  33.563 238.603  1.00  0.00     0.052 C 
ATOM      5  C5  UNK     1       2.524  32.389 236.011  1.00  0.00     0.018 C 
ATOM      6  C6  UNK     1       3.491  32.596 238.260  1.00  0.00     0.018 C 
ATOM      7  C10 UNK     1       2.632  31.598 234.735  1.00  0.00     0.069 C 
ATOM      8  C12 UNK     1       4.538  32.007 239.166  1.00  0.00     0.069 C 
ATOM      9  H2  UNK     1       4.135  31.342 236.757  1.00  0.00     0.165 HD
ENDROOT
BRANCH   2  10
ATOM     10  C4  UNK     1       1.917  35.579 237.329  1.00  0.00    -0.012 A 
ATOM     11  C8  UNK     1       0.930  36.551 237.458  1.00  0.00     0.110 A 
ATOM     12  C15 UNK     1       1.239  37.889 237.214  1.00  0.00     0.037 A 
ATOM     13  C17 UNK     1       2.534  38.250 236.841  1.00  0.00     0.002 A 
ATOM     14  C16 UNK     1       3.520  37.272 236.713  1.00  0.00     0.001 A 
ATOM     15  C9  UNK     1       3.211  35.933 236.957  1.00  0.00     0.011 A 
BRANCH  11  16
ATOM     16  N2  UNK     1      -0.398  36.207 237.836  1.00  0.00    -0.115 N 
ATOM     17  O5  UNK     1      -1.332  36.419 237.026  1.00  0.00    -0.532 OA
ATOM     18  O6  UNK     1      -0.595  35.701 238.965  1.00  0.00    -0.532 OA
ENDBRANCH  11  16
ENDBRANCH   2  10
BRANCH   3  19
ATOM     19  C7  UNK     1       0.535  33.680 235.311  1.00  0.00     0.292 C 
ATOM     20  O3  UNK     1      -0.585  33.210 235.387  1.00  0.00    -0.259 OA
BRANCH  19  21
ATOM     21  O1  UNK     1       1.018  34.554 234.395  1.00  0.00    -0.317 OA
BRANCH  21  22
ATOM     22  C14 UNK     1       0.057  35.476 233.871  1.00  0.00     0.183 C 
BRANCH  22  23
ATOM     23  C13 UNK     1       0.741  36.804 233.529  1.00  0.00     0.002 C 
ATOM     24  C18 UNK     1      -0.156  37.979 233.913  1.00  0.00     0.011 C 
ATOM     25  C19 UNK     1       1.107  36.876 232.046  1.00  0.00     0.011 C 
ENDBRANCH  22  23
ENDBRANCH  21  22
ENDBRANCH  19  21
ENDBRANCH   3  19
BRANCH   4  26
ATOM     26  C11 UNK     1       2.518  34.088 239.975  1.00  0.00     0.291 C 
ATOM     27  O4  UNK     1       1.631  33.781 240.750  1.00  0.00    -0.260 OA
BRANCH  26  28
ATOM     28  O2  UNK     1       3.561  34.927 240.183  1.00  0.00    -0.323 OA
ATOM     29  C20 UNK     1       3.201  36.261 240.559  1.00  0.00     0.213 C 
ENDBRANCH  26  28
ENDBRANCH   4  26
TORSDOF 8
ENDMDL
MODEL 5
REMARK VINA RESULT:      -5.2      2.378      4.527
REMARK  8 active torsions:
REMARK  status: ('A' for Active; 'I' for Inactive)
REMARK    1  A    between atoms: O1_1  and  C7_15 
REMARK    2  A    between atoms: O1_1  and  C14_22 
REMARK    3  A    between atoms: O2_2  and  C11_19 
REMARK    4  A    between atoms: N2_8  and  C8_16 
REMARK    5  A    between atoms: C1_9  and  C4_12 
REMARK    6  A    between atoms: C2_10  and  C7_15 
REMARK    7  A    between atoms: C3_11  and  C11_19 
REMARK    8  A    between atoms: C13_21  and  C14_22 
ROOT
ATOM      1  N1  UNK     1      -2.145  36.087 236.635  1.00  0.00    -0.362 N 
ATOM      2  C1  UNK     1       0.647  35.727 236.967  1.00  0.00     0.103 C 
ATOM      3  C2  UNK     1       0.032  36.548 235.827  1.00  0.00     0.052 C 
ATOM      4  C3  UNK     1      -0.391  35.262 237.995  1.00  0.00     0.052 C 
ATOM      5  C5  UNK     1      -1.308  36.679 235.702  1.00  0.00     0.018 C 
ATOM      6  C6  UNK     1      -1.715  35.432 237.778  1.00  0.00     0.018 C 
ATOM      7  C10 UNK     1      -2.012  37.428 234.603  1.00  0.00     0.069 C 
ATOM      8  C12 UNK     1      -2.816  34.969 238.695  1.00  0.00     0.069 C 
ATOM      9  H2  UNK     1      -3.143  36.198 236.506  1.00  0.00     0.165 HD
ENDROOT
BRANCH   2  10
ATOM     10  C4  UNK     1       1.379  34.542 236.408  1.00  0.00    -0.012 A 
ATOM     11  C8  UNK     1       2.733  34.346 236.665  1.00  0.00     0.110 A 
ATOM     12  C15 UNK     1       3.385  33.236 236.131  1.00  0.00     0.037 A 
ATOM     13  C17 UNK     1       2.682  32.326 235.340  1.00  0.00     0.002 A 
ATOM     14  C16 UNK     1       1.326  32.526 235.086  1.00  0.00     0.001 A 
ATOM     15  C9  UNK     1       0.672  33.637 235.621  1.00  0.00     0.011 A 
BRANCH  11  16
ATOM     16  N2  UNK     1       3.470  35.262 237.466  1.00  0.00    -0.115 N 
ATOM     17  O5  UNK     1       3.815  36.360 236.968  1.00  0.00    -0.532 OA
ATOM     18  O6  UNK     1       3.751  34.945 238.646  1.00  0.00    -0.532 OA
ENDBRANCH  11  16
ENDBRANCH   2  10
BRANCH   3  19
ATOM     19  C7  UNK     1       0.974  37.230 234.926  1.00  0.00     0.292 C 
ATOM     20  O3  UNK     1       1.436  38.333 235.151  1.00  0.00    -0.259 OA
BRANCH  19  21
ATOM     21  O1  UNK     1       1.206  36.426 233.861  1.00  0.00    -0.317 OA
BRANCH  21  22
ATOM     22  C14 UNK     1       1.136  37.073 232.585  1.00  0.00     0.183 C 
BRANCH  22  23
ATOM     23  C13 UNK     1       0.271  36.247 231.628  1.00  0.00     0.002 C 
ATOM     24  C18 UNK     1       0.082  34.831 232.169  1.00  0.00     0.011 C 
ATOM     25  C19 UNK     1       0.879  36.203 230.225  1.00  0.00     0.011 C 
ENDBRANCH  22  23
ENDBRANCH  21  22
ENDBRANCH  19  21
ENDBRANCH   3  19
BRANCH   4  26
ATOM     26  C11 UNK     1       0.130  34.673 239.238  1.00  0.00     0.291 C 
ATOM     27  O4  UNK     1       0.766  35.305 240.062  1.00  0.00    -0.260 OA
BRANCH  26  28
ATOM     28  O2  UNK     1      -0.224  33.366 239.275  1.00  0.00    -0.323 OA
ATOM     29  C20 UNK     1       0.869  32.443 239.332  1.00  0.00     0.213 C 
ENDBRANCH  26  28
ENDBRANCH   4  26
TORSDOF 8
ENDMDL
MODEL 6
REMARK VINA RESULT:      -5.1      2.580      4.972
REMARK  8 active torsions:
REMARK  status: ('A' for Active; 'I' for Inactive)
REMARK    1  A    between atoms: O1_1  and  C7_15 
REMARK    2  A    between atoms: O1_1  and  C14_22 
REMARK    3  A    between atoms: O2_2  and  C11_19 
REMARK    4  A    between atoms: N2_8  and  C8_16 
REMARK    5  A    between atoms: C1_9  and  C4_12 
REMARK    6  A    between atoms: C2_10  and  C7_15 
REMARK    7  A    between atoms: C3_11  and  C11_19 
REMARK    8  A    between atoms: C13_21  and  C14_22 
ROOT
ATOM      1  N1  UNK     1      -0.225  38.581 235.777  1.00  0.00    -0.362 N 
ATOM      2  C1  UNK     1       0.971  36.052 236.233  1.00  0.00     0.103 C 
ATOM      3  C2  UNK     1      -0.109  36.295 235.172  1.00  0.00     0.052 C 
ATOM      4  C3  UNK     1       1.450  37.344 236.903  1.00  0.00     0.052 C 
ATOM      5  C5  UNK     1      -0.660  37.518 235.001  1.00  0.00     0.018 C 
ATOM      6  C6  UNK     1       0.829  38.523 236.675  1.00  0.00     0.018 C 
ATOM      7  C10 UNK     1      -1.750  37.854 234.018  1.00  0.00     0.069 C 
ATOM      8  C12 UNK     1       1.186  39.836 237.318  1.00  0.00     0.069 C 
ATOM      9  H2  UNK     1      -0.666  39.481 235.628  1.00  0.00     0.165 HD
ENDROOT
BRANCH   2  10
ATOM     10  C4  UNK     1       0.462  35.095 237.272  1.00  0.00    -0.012 A 
ATOM     11  C8  UNK     1       1.067  33.857 237.467  1.00  0.00     0.110 A 
ATOM     12  C15 UNK     1       0.571  32.990 238.439  1.00  0.00     0.037 A 
ATOM     13  C17 UNK     1      -0.529  33.363 239.213  1.00  0.00     0.002 A 
ATOM     14  C16 UNK     1      -1.132  34.605 239.013  1.00  0.00     0.001 A 
ATOM     15  C9  UNK     1      -0.635  35.473 238.041  1.00  0.00     0.011 A 
BRANCH  11  16
ATOM     16  N2  UNK     1       2.188  33.455 236.689  1.00  0.00    -0.115 N 
ATOM     17  O5  UNK     1       1.990  32.822 235.625  1.00  0.00    -0.532 OA
ATOM     18  O6  UNK     1       3.339  33.745 237.091  1.00  0.00    -0.532 OA
ENDBRANCH  11  16
ENDBRANCH   2  10
BRANCH   3  19
ATOM     19  C7  UNK     1      -0.461  35.150 234.317  1.00  0.00     0.292 C 
ATOM     20  O3  UNK     1      -1.470  34.487 234.468  1.00  0.00    -0.259 OA
BRANCH  19  21
ATOM     21  O1  UNK     1       0.510  34.998 233.385  1.00  0.00    -0.317 OA
BRANCH  21  22
ATOM     22  C14 UNK     1       0.042  34.730 232.058  1.00  0.00     0.183 C 
BRANCH  22  23
ATOM     23  C13 UNK     1       0.217  35.974 231.182  1.00  0.00     0.002 C 
ATOM     24  C18 UNK     1       0.650  35.576 229.773  1.00  0.00     0.011 C 
ATOM     25  C19 UNK     1       1.224  36.949 231.794  1.00  0.00     0.011 C 
ENDBRANCH  22  23
ENDBRANCH  21  22
ENDBRANCH  19  21
ENDBRANCH   3  19
BRANCH   4  26
ATOM     26  C11 UNK     1       2.642  37.239 237.760  1.00  0.00     0.291 C 
ATOM     27  O4  UNK     1       3.772  37.130 237.322  1.00  0.00    -0.260 OA
BRANCH  26  28
ATOM     28  O2  UNK     1       2.245  37.289 239.054  1.00  0.00    -0.323 OA
ATOM     29  C20 UNK     1       2.761  36.247 239.889  1.00  0.00     0.213 C 
ENDBRANCH  26  28
ENDBRANCH   4  26
TORSDOF 8
ENDMDL
MODEL 7
REMARK VINA RESULT:      -5.1      2.768      5.036
REMARK  8 active torsions:
REMARK  status: ('A' for Active; 'I' for Inactive)
REMARK    1  A    between atoms: O1_1  and  C7_15 
REMARK    2  A    between atoms: O1_1  and  C14_22 
REMARK    3  A    between atoms: O2_2  and  C11_19 
REMARK    4  A    between atoms: N2_8  and  C8_16 
REMARK    5  A    between atoms: C1_9  and  C4_12 
REMARK    6  A    between atoms: C2_10  and  C7_15 
REMARK    7  A    between atoms: C3_11  and  C11_19 
REMARK    8  A    between atoms: C13_21  and  C14_22 
ROOT
ATOM      1  N1  UNK     1       3.087  34.683 236.591  1.00  0.00    -0.362 N 
ATOM      2  C1  UNK     1       0.434  35.251 235.770  1.00  0.00     0.103 C 
ATOM      3  C2  UNK     1       1.139  33.920 235.482  1.00  0.00     0.052 C 
ATOM      4  C3  UNK     1       1.250  36.172 236.684  1.00  0.00     0.052 C 
ATOM      5  C5  UNK     1       2.412  33.700 235.882  1.00  0.00     0.018 C 
ATOM      6  C6  UNK     1       2.523  35.871 237.026  1.00  0.00     0.018 C 
ATOM      7  C10 UNK     1       3.206  32.449 235.618  1.00  0.00     0.069 C 
ATOM      8  C12 UNK     1       3.425  36.728 237.872  1.00  0.00     0.069 C 
ATOM      9  H2  UNK     1       4.042  34.488 236.867  1.00  0.00     0.165 HD
ENDROOT
BRANCH   2  10
ATOM     10  C4  UNK     1       0.122  35.955 234.482  1.00  0.00    -0.012 A 
ATOM     11  C8  UNK     1      -1.191  36.244 234.120  1.00  0.00     0.110 A 
ATOM     12  C15 UNK     1      -1.449  36.898 232.916  1.00  0.00     0.037 A 
ATOM     13  C17 UNK     1      -0.394  37.259 232.077  1.00  0.00     0.002 A 
ATOM     14  C16 UNK     1       0.919  36.967 232.444  1.00  0.00     0.001 A 
ATOM     15  C9  UNK     1       1.178  36.313 233.649  1.00  0.00     0.011 A 
BRANCH  11  16
ATOM     16  N2  UNK     1      -2.282  35.883 234.958  1.00  0.00    -0.115 N 
ATOM     17  O5  UNK     1      -2.665  36.694 235.835  1.00  0.00    -0.532 OA
ATOM     18  O6  UNK     1      -2.828  34.767 234.795  1.00  0.00    -0.532 OA
ENDBRANCH  11  16
ENDBRANCH   2  10
BRANCH   3  19
ATOM     19  C7  UNK     1       0.338  32.883 234.811  1.00  0.00     0.292 C 
ATOM     20  O3  UNK     1      -0.589  32.304 235.345  1.00  0.00    -0.259 OA
BRANCH  19  21
ATOM     21  O1  UNK     1       0.817  32.719 233.555  1.00  0.00    -0.317 OA
BRANCH  21  22
ATOM     22  C14 UNK     1      -0.137  32.244 232.598  1.00  0.00     0.183 C 
BRANCH  22  23
ATOM     23  C13 UNK     1      -0.849  33.429 231.939  1.00  0.00     0.002 C 
ATOM     24  C18 UNK     1      -2.342  33.142 231.798  1.00  0.00     0.011 C 
ATOM     25  C19 UNK     1      -0.239  33.757 230.575  1.00  0.00     0.011 C 
ENDBRANCH  22  23
ENDBRANCH  21  22
ENDBRANCH  19  21
ENDBRANCH   3  19
BRANCH   4  26
ATOM     26  C11 UNK     1       0.560  37.364 237.203  1.00  0.00     0.291 C 
ATOM     27  O4  UNK     1      -0.259  37.323 238.103  1.00  0.00    -0.260 OA
BRANCH  26  28
ATOM     28  O2  UNK     1       1.000  38.447 236.518  1.00  0.00    -0.323 OA
ATOM     29  C20 UNK     1       1.129  39.644 237.293  1.00  0.00     0.213 C 
ENDBRANCH  26  28
ENDBRANCH   4  26
TORSDOF 8
ENDMDL
MODEL 8
REMARK VINA RESULT:      -5.1      3.605      5.935
REMARK  8 active torsions:
REMARK  status: ('A' for Active; 'I' for Inactive)
REMARK    1  A    between atoms: O1_1  and  C7_15 
REMARK    2  A    between atoms: O1_1  and  C14_22 
REMARK    3  A    between atoms: O2_2  and  C11_19 
REMARK    4  A    between atoms: N2_8  and  C8_16 
REMARK    5  A    between atoms: C1_9  and  C4_12 
REMARK    6  A    between atoms: C2_10  and  C7_15 
REMARK    7  A    between atoms: C3_11  and  C11_19 
REMARK    8  A    between atoms: C13_21  and  C14_22 
ROOT
ATOM      1  N1  UNK     1       1.299  34.432 235.985  1.00  0.00    -0.362 N 
ATOM      2  C1  UNK     1      -0.445  36.249 234.684  1.00  0.00     0.103 C 
ATOM      3  C2  UNK     1      -0.727  34.746 234.802  1.00  0.00     0.052 C 
ATOM      4  C3  UNK     1       0.789  36.687 235.480  1.00  0.00     0.052 C 
ATOM      5  C5  UNK     1       0.142  33.916 235.420  1.00  0.00     0.018 C 
ATOM      6  C6  UNK     1       1.608  35.780 236.060  1.00  0.00     0.018 C 
ATOM      7  C10 UNK     1      -0.020  32.426 235.557  1.00  0.00     0.069 C 
ATOM      8  C12 UNK     1       2.868  36.101 236.818  1.00  0.00     0.069 C 
ATOM      9  H2  UNK     1       1.933  33.780 236.432  1.00  0.00     0.165 HD
ENDROOT
BRANCH   2  10
ATOM     10  C4  UNK     1      -0.284  36.628 233.241  1.00  0.00    -0.012 A 
ATOM     11  C8  UNK     1      -1.182  37.491 232.620  1.00  0.00     0.110 A 
ATOM     12  C15 UNK     1      -1.006  37.824 231.278  1.00  0.00     0.037 A 
ATOM     13  C17 UNK     1       0.066  37.292 230.561  1.00  0.00     0.002 A 
ATOM     14  C16 UNK     1       0.963  36.428 231.187  1.00  0.00     0.001 A 
ATOM     15  C9  UNK     1       0.788  36.095 232.531  1.00  0.00     0.011 A 
BRANCH  11  16
ATOM     16  N2  UNK     1      -2.284  38.043 233.331  1.00  0.00    -0.115 N 
ATOM     17  O5  UNK     1      -2.140  39.148 233.906  1.00  0.00    -0.532 OA
ATOM     18  O6  UNK     1      -3.364  37.409 233.361  1.00  0.00    -0.532 OA
ENDBRANCH  11  16
ENDBRANCH   2  10
BRANCH   3  19
ATOM     19  C7  UNK     1      -2.015  34.275 234.268  1.00  0.00     0.292 C 
ATOM     20  O3  UNK     1      -3.083  34.483 234.815  1.00  0.00    -0.259 OA
BRANCH  19  21
ATOM     21  O1  UNK     1      -1.781  33.605 233.115  1.00  0.00    -0.317 OA
BRANCH  21  22
ATOM     22  C14 UNK     1      -2.549  34.046 231.989  1.00  0.00     0.183 C 
BRANCH  22  23
ATOM     23  C13 UNK     1      -1.945  33.491 230.696  1.00  0.00     0.002 C 
ATOM     24  C18 UNK     1      -0.509  33.031 230.934  1.00  0.00     0.011 C 
ATOM     25  C19 UNK     1      -1.993  34.526 229.570  1.00  0.00     0.011 C 
ENDBRANCH  22  23
ENDBRANCH  21  22
ENDBRANCH  19  21
ENDBRANCH   3  19
BRANCH   4  26
ATOM     26  C11 UNK     1       1.003  38.137 235.619  1.00  0.00     0.291 C 
ATOM     27  O4  UNK     1       1.792  38.764 234.936  1.00  0.00    -0.260 OA
BRANCH  26  28
ATOM     28  O2  UNK     1       0.189  38.598 236.599  1.00  0.00    -0.323 OA
ATOM     29  C20 UNK     1       0.781  39.565 237.474  1.00  0.00     0.213 C 
ENDBRANCH  26  28
ENDBRANCH   4  26
TORSDOF 8
ENDMDL
MODEL 9
REMARK VINA RESULT:      -5.0      2.257      5.811
REMARK  8 active torsions:
REMARK  status: ('A' for Active; 'I' for Inactive)
REMARK    1  A    between atoms: O1_1  and  C7_15 
REMARK    2  A    between atoms: O1_1  and  C14_22 
REMARK    3  A    between atoms: O2_2  and  C11_19 
REMARK    4  A    between atoms: N2_8  and  C8_16 
REMARK    5  A    between atoms: C1_9  and  C4_12 
REMARK    6  A    between atoms: C2_10  and  C7_15 
REMARK    7  A    between atoms: C3_11  and  C11_19 
REMARK    8  A    between atoms: C13_21  and  C14_22 
ROOT
ATOM      1  N1  UNK     1      -2.042  36.616 236.486  1.00  0.00    -0.362 N 
ATOM      2  C1  UNK     1       0.715  36.100 236.889  1.00  0.00     0.103 C 
ATOM      3  C2  UNK     1      -0.391  35.514 237.775  1.00  0.00     0.052 C 
ATOM      4  C3  UNK     1       0.168  36.855 235.673  1.00  0.00     0.052 C 
ATOM      5  C5  UNK     1      -1.693  35.800 237.552  1.00  0.00     0.018 C 
ATOM      6  C6  UNK     1      -1.155  37.102 235.539  1.00  0.00     0.018 C 
ATOM      7  C10 UNK     1      -2.849  35.310 238.381  1.00  0.00     0.069 C 
ATOM      8  C12 UNK     1      -1.789  37.875 234.415  1.00  0.00     0.069 C 
ATOM      9  H2  UNK     1      -3.026  36.817 236.354  1.00  0.00     0.165 HD
ENDROOT
BRANCH   2  10
ATOM     10  C4  UNK     1       1.595  37.006 237.700  1.00  0.00    -0.012 A 
ATOM     11  C8  UNK     1       2.882  36.622 238.064  1.00  0.00     0.110 A 
ATOM     12  C15 UNK     1       3.675  37.485 238.819  1.00  0.00     0.037 A 
ATOM     13  C17 UNK     1       3.178  38.729 239.209  1.00  0.00     0.002 A 
ATOM     14  C16 UNK     1       1.888  39.110 238.842  1.00  0.00     0.001 A 
ATOM     15  C9  UNK     1       1.094  38.246 238.086  1.00  0.00     0.011 A 
BRANCH  11  16
ATOM     16  N2  UNK     1       3.409  35.357 237.680  1.00  0.00    -0.115 N 
ATOM     17  O5  UNK     1       3.675  34.516 238.572  1.00  0.00    -0.532 OA
ATOM     18  O6  UNK     1       3.591  35.121 236.463  1.00  0.00    -0.532 OA
ENDBRANCH  11  16
ENDBRANCH   2  10
BRANCH   3  19
ATOM     19  C7  UNK     1       0.037  34.580 238.829  1.00  0.00     0.292 C 
ATOM     20  O3  UNK     1       0.348  34.935 239.951  1.00  0.00    -0.259 OA
BRANCH  19  21
ATOM     21  O1  UNK     1       0.013  33.324 238.324  1.00  0.00    -0.317 OA
BRANCH  21  22
ATOM     22  C14 UNK     1       1.132  32.505 238.679  1.00  0.00     0.183 C 
BRANCH  22  23
ATOM     23  C13 UNK     1       1.551  31.646 237.482  1.00  0.00     0.002 C 
ATOM     24  C18 UNK     1       2.987  31.157 237.654  1.00  0.00     0.011 C 
ATOM     25  C19 UNK     1       1.404  32.414 236.167  1.00  0.00     0.011 C 
ENDBRANCH  22  23
ENDBRANCH  21  22
ENDBRANCH  19  21
ENDBRANCH   3  19
BRANCH   4  26
ATOM     26  C11 UNK     1       1.146  37.249 234.646  1.00  0.00     0.291 C 
ATOM     27  O4  UNK     1       1.818  38.261 234.717  1.00  0.00    -0.260 OA
BRANCH  26  28
ATOM     28  O2  UNK     1       1.144  36.309 233.671  1.00  0.00    -0.323 OA
ATOM     29  C20 UNK     1       1.078  36.822 232.335  1.00  0.00     0.213 C 
ENDBRANCH  26  28
ENDBRANCH   4  26
TORSDOF 8
ENDMDL
