MODEL 1
REMARK VINA RESULT:      -7.0      0.000      0.000
REMARK  2 active torsions:
REMARK  status: ('A' for Active; 'I' for Inactive)
REMARK    1  A    between atoms: C1_4  and  C2_5 
REMARK    2  A    between atoms: C1_4  and  C4_7 
ROOT
ATOM      1  C1  UNK     1       0.626  43.104 227.875  1.00  0.00     0.066 C 
ATOM      2  C5  UNK     1       1.942  42.296 228.004  1.00  0.00     0.021 C 
ENDROOT
BRANCH   1   3
ATOM      3  C2  UNK     1      -0.620  42.392 228.290  1.00  0.00    -0.042 A 
ATOM      4  C3  UNK     1      -1.789  42.489 227.536  1.00  0.00    -0.049 A 
ATOM      5  C6  UNK     1      -2.939  41.814 227.944  1.00  0.00    -0.056 A 
ATOM      6  C8  UNK     1      -1.810  43.319 226.292  1.00  0.00     0.049 C 
ATOM      7  C9  UNK     1      -2.920  41.040 229.105  1.00  0.00     0.007 A 
ATOM      8  C12 UNK     1      -4.205  41.903 227.155  1.00  0.00     0.049 C 
ATOM      9  C10 UNK     1      -1.751  40.942 229.858  1.00  0.00     0.001 A 
ATOM     10  C7  UNK     1      -0.600  41.618 229.451  1.00  0.00     0.008 A 
ENDBRANCH   1   3
BRANCH   1  11
ATOM     11  C4  UNK     1       0.789  44.475 228.552  1.00  0.00     0.033 A 
ATOM     12  N1  UNK     1       1.226  45.522 227.856  1.00  0.00    -0.354 N 
ATOM     13  C13 UNK     1       1.251  46.557 228.749  1.00  0.00     0.180 A 
ATOM     14  H11 UNK     1       1.490  45.563 226.879  1.00  0.00     0.166 HD
ATOM     15  N2  UNK     1       0.851  46.182 229.943  1.00  0.00    -0.360 N 
ATOM     16  C11 UNK     1       0.557  44.847 229.810  1.00  0.00     0.114 A 
ATOM     17  H2  UNK     1       0.776  46.755 230.783  1.00  0.00     0.166 HD
ENDBRANCH   1  11
TORSDOF 2
ENDMDL
MODEL 2
REMARK VINA RESULT:      -6.3      2.329      5.050
REMARK  2 active torsions:
REMARK  status: ('A' for Active; 'I' for Inactive)
REMARK    1  A    between atoms: C1_4  and  C2_5 
REMARK    2  A    between atoms: C1_4  and  C4_7 
ROOT
ATOM      1  C1  UNK     1      -0.951  42.643 229.011  1.00  0.00     0.066 C 
ATOM      2  C5  UNK     1      -1.497  41.458 229.847  1.00  0.00     0.021 C 
ENDROOT
BRANCH   1   3
ATOM      3  C2  UNK     1       0.528  42.669 228.805  1.00  0.00    -0.042 A 
ATOM      4  C3  UNK     1       1.338  43.550 229.520  1.00  0.00    -0.049 A 
ATOM      5  C6  UNK     1       2.717  43.555 229.310  1.00  0.00    -0.056 A 
ATOM      6  C8  UNK     1       0.729  44.492 230.509  1.00  0.00     0.049 C 
ATOM      7  C9  UNK     1       3.286  42.677 228.386  1.00  0.00     0.007 A 
ATOM      8  C12 UNK     1       3.608  44.490 230.061  1.00  0.00     0.049 C 
ATOM      9  C10 UNK     1       2.475  41.795 227.672  1.00  0.00     0.001 A 
ATOM     10  C7  UNK     1       1.096  41.791 227.882  1.00  0.00     0.008 A 
ENDBRANCH   1   3
BRANCH   1  11
ATOM     11  C4  UNK     1      -1.744  42.763 227.699  1.00  0.00     0.033 A 
ATOM     12  N1  UNK     1      -2.895  42.111 227.546  1.00  0.00    -0.354 N 
ATOM     13  C13 UNK     1      -3.322  42.436 226.288  1.00  0.00     0.180 A 
ATOM     14  H11 UNK     1      -3.366  41.502 228.203  1.00  0.00     0.166 HD
ATOM     15  N2  UNK     1      -2.485  43.248 225.683  1.00  0.00    -0.360 N 
ATOM     16  C11 UNK     1      -1.477  43.453 226.592  1.00  0.00     0.114 A 
ATOM     17  H2  UNK     1      -2.566  43.640 224.745  1.00  0.00     0.166 HD
ENDBRANCH   1  11
TORSDOF 2
ENDMDL
MODEL 3
REMARK VINA RESULT:      -6.2      0.593      2.030
REMARK  2 active torsions:
REMARK  status: ('A' for Active; 'I' for Inactive)
REMARK    1  A    between atoms: C1_4  and  C2_5 
REMARK    2  A    between atoms: C1_4  and  C4_7 
ROOT
ATOM      1  C1  UNK     1       0.490  43.141 227.641  1.00  0.00     0.066 C 
ATOM      2  C5  UNK     1       1.393  42.020 228.214  1.00  0.00     0.021 C 
ENDROOT
BRANCH   1   3
ATOM      3  C2  UNK     1      -0.953  42.793 227.471  1.00  0.00    -0.042 A 
ATOM      4  C3  UNK     1      -1.626  42.030 228.425  1.00  0.00    -0.049 A 
ATOM      5  C6  UNK     1      -2.973  41.720 228.245  1.00  0.00    -0.056 A 
ATOM      6  C8  UNK     1      -0.902  41.544 229.640  1.00  0.00     0.049 C 
ATOM      7  C9  UNK     1      -3.648  42.173 227.111  1.00  0.00     0.007 A 
ATOM      8  C12 UNK     1      -3.717  40.902 229.250  1.00  0.00     0.049 C 
ATOM      9  C10 UNK     1      -2.975  42.937 226.157  1.00  0.00     0.001 A 
ATOM     10  C7  UNK     1      -1.627  43.247 226.338  1.00  0.00     0.008 A 
ENDBRANCH   1   3
BRANCH   1  11
ATOM     11  C4  UNK     1       0.707  44.440 228.434  1.00  0.00     0.033 A 
ATOM     12  N1  UNK     1       1.162  45.533 227.825  1.00  0.00    -0.354 N 
ATOM     13  C13 UNK     1       1.234  46.482 228.807  1.00  0.00     0.180 A 
ATOM     14  H11 UNK     1       1.409  45.655 226.851  1.00  0.00     0.166 HD
ATOM     15  N2  UNK     1       0.845  46.012 229.971  1.00  0.00    -0.360 N 
ATOM     16  C11 UNK     1       0.509  44.704 229.725  1.00  0.00     0.114 A 
ATOM     17  H2  UNK     1       0.803  46.509 230.860  1.00  0.00     0.166 HD
ENDBRANCH   1  11
TORSDOF 2
ENDMDL
MODEL 4
REMARK VINA RESULT:      -6.1      2.430      5.122
REMARK  2 active torsions:
REMARK  status: ('A' for Active; 'I' for Inactive)
REMARK    1  A    between atoms: C1_4  and  C2_5 
REMARK    2  A    between atoms: C1_4  and  C4_7 
ROOT
ATOM      1  C1  UNK     1      -0.764  42.710 227.395  1.00  0.00     0.066 C 
ATOM      2  C5  UNK     1      -1.612  43.466 226.341  1.00  0.00     0.021 C 
ENDROOT
BRANCH   1   3
ATOM      3  C2  UNK     1       0.327  43.499 228.042  1.00  0.00    -0.042 A 
ATOM      4  C3  UNK     1       1.571  42.926 228.304  1.00  0.00    -0.049 A 
ATOM      5  C6  UNK     1       2.574  43.685 228.908  1.00  0.00    -0.056 A 
ATOM      6  C8  UNK     1       1.829  41.500 227.940  1.00  0.00     0.049 C 
ATOM      7  C9  UNK     1       2.333  45.016 229.249  1.00  0.00     0.007 A 
ATOM      8  C12 UNK     1       3.915  43.095 229.202  1.00  0.00     0.049 C 
ATOM      9  C10 UNK     1       1.088  45.589 228.986  1.00  0.00     0.001 A 
ATOM     10  C7  UNK     1       0.086  44.830 228.382  1.00  0.00     0.008 A 
ENDBRANCH   1   3
BRANCH   1  11
ATOM     11  C4  UNK     1      -1.689  42.018 228.409  1.00  0.00     0.033 A 
ATOM     12  N1  UNK     1      -2.936  41.697 228.073  1.00  0.00    -0.354 N 
ATOM     13  C13 UNK     1      -3.466  41.109 229.188  1.00  0.00     0.180 A 
ATOM     14  H11 UNK     1      -3.410  41.849 227.190  1.00  0.00     0.166 HD
ATOM     15  N2  UNK     1      -2.597  41.063 230.174  1.00  0.00    -0.360 N 
ATOM     16  C11 UNK     1      -1.462  41.647 229.668  1.00  0.00     0.114 A 
ATOM     17  H2  UNK     1      -2.735  40.678 231.108  1.00  0.00     0.166 HD
ENDBRANCH   1  11
TORSDOF 2
ENDMDL
MODEL 5
REMARK VINA RESULT:      -5.9      1.640      3.134
REMARK  2 active torsions:
REMARK  status: ('A' for Active; 'I' for Inactive)
REMARK    1  A    between atoms: C1_4  and  C2_5 
REMARK    2  A    between atoms: C1_4  and  C4_7 
ROOT
ATOM      1  C1  UNK     1       0.130  43.278 229.481  1.00  0.00     0.066 C 
ATOM      2  C5  UNK     1       0.188  44.755 229.945  1.00  0.00     0.021 C 
ENDROOT
BRANCH   1   3
ATOM      3  C2  UNK     1      -1.028  42.913 228.611  1.00  0.00    -0.042 A 
ATOM      4  C3  UNK     1      -1.896  41.880 228.964  1.00  0.00    -0.049 A 
ATOM      5  C6  UNK     1      -2.971  41.559 228.135  1.00  0.00    -0.056 A 
ATOM      6  C8  UNK     1      -1.673  41.116 230.230  1.00  0.00     0.049 C 
ATOM      7  C9  UNK     1      -3.178  42.271 226.953  1.00  0.00     0.007 A 
ATOM      8  C12 UNK     1      -3.914  40.455 228.489  1.00  0.00     0.049 C 
ATOM      9  C10 UNK     1      -2.310  43.304 226.601  1.00  0.00     0.001 A 
ATOM     10  C7  UNK     1      -1.235  43.625 227.430  1.00  0.00     0.008 A 
ENDBRANCH   1   3
BRANCH   1  11
ATOM     11  C4  UNK     1       1.485  42.867 228.883  1.00  0.00     0.033 A 
ATOM     12  N1  UNK     1       2.619  43.326 229.408  1.00  0.00    -0.354 N 
ATOM     13  C13 UNK     1       3.612  42.772 228.648  1.00  0.00     0.180 A 
ATOM     14  H11 UNK     1       2.742  43.950 230.196  1.00  0.00     0.166 HD
ATOM     15  N2  UNK     1       3.128  42.006 227.696  1.00  0.00    -0.360 N 
ATOM     16  C11 UNK     1       1.766  42.072 227.852  1.00  0.00     0.114 A 
ATOM     17  H2  UNK     1       3.649  41.480 226.995  1.00  0.00     0.166 HD
ENDBRANCH   1  11
TORSDOF 2
ENDMDL
MODEL 6
REMARK VINA RESULT:      -5.9      9.603     11.366
REMARK  2 active torsions:
REMARK  status: ('A' for Active; 'I' for Inactive)
REMARK    1  A    between atoms: C1_4  and  C2_5 
REMARK    2  A    between atoms: C1_4  and  C4_7 
ROOT
ATOM      1  C1  UNK     1       0.960  38.345 238.289  1.00  0.00     0.066 C 
ATOM      2  C5  UNK     1       0.188  39.685 238.378  1.00  0.00     0.021 C 
ENDROOT
BRANCH   1   3
ATOM      3  C2  UNK     1       1.026  37.719 236.934  1.00  0.00    -0.042 A 
ATOM      4  C3  UNK     1       0.885  36.341 236.770  1.00  0.00    -0.049 A 
ATOM      5  C6  UNK     1       0.949  35.782 235.494  1.00  0.00    -0.056 A 
ATOM      6  C8  UNK     1       0.668  35.465 237.961  1.00  0.00     0.049 C 
ATOM      7  C9  UNK     1       1.153  36.600 234.382  1.00  0.00     0.007 A 
ATOM      8  C12 UNK     1       0.804  34.309 235.290  1.00  0.00     0.049 C 
ATOM      9  C10 UNK     1       1.292  37.978 234.546  1.00  0.00     0.001 A 
ATOM     10  C7  UNK     1       1.228  38.537 235.822  1.00  0.00     0.008 A 
ENDBRANCH   1   3
BRANCH   1  11
ATOM     11  C4  UNK     1       2.339  38.494 238.950  1.00  0.00     0.033 A 
ATOM     12  N1  UNK     1       2.601  37.888 240.106  1.00  0.00    -0.354 N 
ATOM     13  C13 UNK     1       3.893  38.227 240.401  1.00  0.00     0.180 A 
ATOM     14  H11 UNK     1       1.990  37.302 240.663  1.00  0.00     0.166 HD
ATOM     15  N2  UNK     1       4.416  39.004 239.480  1.00  0.00    -0.360 N 
ATOM     16  C11 UNK     1       3.416  39.171 238.554  1.00  0.00     0.114 A 
ATOM     17  H2  UNK     1       5.356  39.397 239.457  1.00  0.00     0.166 HD
ENDBRANCH   1  11
TORSDOF 2
ENDMDL
MODEL 7
REMARK VINA RESULT:      -5.8      1.499      1.762
REMARK  2 active torsions:
REMARK  status: ('A' for Active; 'I' for Inactive)
REMARK    1  A    between atoms: C1_4  and  C2_5 
REMARK    2  A    between atoms: C1_4  and  C4_7 
ROOT
ATOM      1  C1  UNK     1      -0.602  43.017 228.264  1.00  0.00     0.066 C 
ATOM      2  C5  UNK     1       0.186  42.611 226.993  1.00  0.00     0.021 C 
ENDROOT
BRANCH   1   3
ATOM      3  C2  UNK     1      -1.472  41.958 228.858  1.00  0.00    -0.042 A 
ATOM      4  C3  UNK     1      -2.748  41.708 228.354  1.00  0.00    -0.049 A 
ATOM      5  C6  UNK     1      -3.540  40.713 228.925  1.00  0.00    -0.056 A 
ATOM      6  C8  UNK     1      -3.267  42.509 227.203  1.00  0.00     0.049 C 
ATOM      7  C9  UNK     1      -3.056  39.966 230.000  1.00  0.00     0.007 A 
ATOM      8  C12 UNK     1      -4.912  40.427 228.406  1.00  0.00     0.049 C 
ATOM      9  C10 UNK     1      -1.780  40.215 230.504  1.00  0.00     0.001 A 
ATOM     10  C7  UNK     1      -0.987  41.211 229.932  1.00  0.00     0.008 A 
ENDBRANCH   1   3
BRANCH   1  11
ATOM     11  C4  UNK     1       0.352  43.655 229.286  1.00  0.00     0.033 A 
ATOM     12  N1  UNK     1       1.551  43.122 229.514  1.00  0.00    -0.354 N 
ATOM     13  C13 UNK     1       2.124  43.925 230.460  1.00  0.00     0.180 A 
ATOM     14  H11 UNK     1       1.965  42.300 229.091  1.00  0.00     0.166 HD
ATOM     15  N2  UNK     1       1.329  44.911 230.810  1.00  0.00    -0.360 N 
ATOM     16  C11 UNK     1       0.196  44.732 230.054  1.00  0.00     0.114 A 
ATOM     17  H2  UNK     1       1.512  45.647 231.491  1.00  0.00     0.166 HD
ENDBRANCH   1  11
TORSDOF 2
ENDMDL
MODEL 8
REMARK VINA RESULT:      -5.6      9.267     11.069
REMARK  2 active torsions:
REMARK  status: ('A' for Active; 'I' for Inactive)
REMARK    1  A    between atoms: C1_4  and  C2_5 
REMARK    2  A    between atoms: C1_4  and  C4_7 
ROOT
ATOM      1  C1  UNK     1       0.838  37.004 235.416  1.00  0.00     0.066 C 
ATOM      2  C5  UNK     1       1.398  37.759 234.184  1.00  0.00     0.021 C 
ENDROOT
BRANCH   1   3
ATOM      3  C2  UNK     1       1.593  35.783 235.831  1.00  0.00    -0.042 A 
ATOM      4  C3  UNK     1       1.245  34.523 235.346  1.00  0.00    -0.049 A 
ATOM      5  C6  UNK     1       1.967  33.399 235.748  1.00  0.00    -0.056 A 
ATOM      6  C8  UNK     1       0.100  34.376 234.397  1.00  0.00     0.049 C 
ATOM      7  C9  UNK     1       3.036  33.535 236.635  1.00  0.00     0.007 A 
ATOM      8  C12 UNK     1       1.614  32.036 235.245  1.00  0.00     0.049 C 
ATOM      9  C10 UNK     1       3.384  34.796 237.119  1.00  0.00     0.001 A 
ATOM     10  C7  UNK     1       2.662  35.920 236.717  1.00  0.00     0.008 A 
ENDBRANCH   1   3
BRANCH   1  11
ATOM     11  C4  UNK     1       0.608  37.991 236.571  1.00  0.00     0.033 A 
ATOM     12  N1  UNK     1       1.076  39.235 236.497  1.00  0.00    -0.354 N 
ATOM     13  C13 UNK     1       0.700  39.828 237.670  1.00  0.00     0.180 A 
ATOM     14  H11 UNK     1       1.600  39.668 235.745  1.00  0.00     0.166 HD
ATOM     15  N2  UNK     1       0.031  39.000 238.442  1.00  0.00    -0.360 N 
ATOM     16  C11 UNK     1      -0.024  37.826 237.731  1.00  0.00     0.114 A 
ATOM     17  H2  UNK     1      -0.361  39.188 239.364  1.00  0.00     0.166 HD
ENDBRANCH   1  11
TORSDOF 2
ENDMDL
MODEL 9
REMARK VINA RESULT:      -5.5      8.805     11.032
REMARK  2 active torsions:
REMARK  status: ('A' for Active; 'I' for Inactive)
REMARK    1  A    between atoms: C1_4  and  C2_5 
REMARK    2  A    between atoms: C1_4  and  C4_7 
ROOT
ATOM      1  C1  UNK     1      -0.498  37.353 236.894  1.00  0.00     0.066 C 
ATOM      2  C5  UNK     1      -1.355  36.253 237.569  1.00  0.00     0.021 C 
ENDROOT
BRANCH   1   3
ATOM      3  C2  UNK     1       0.974  37.273 237.136  1.00  0.00    -0.042 A 
ATOM      4  C3  UNK     1       1.640  38.267 237.851  1.00  0.00    -0.049 A 
ATOM      5  C6  UNK     1       3.016  38.169 238.065  1.00  0.00    -0.056 A 
ATOM      6  C8  UNK     1       0.882  39.439 238.387  1.00  0.00     0.049 C 
ATOM      7  C9  UNK     1       3.723  37.076 237.563  1.00  0.00     0.007 A 
ATOM      8  C12 UNK     1       3.754  39.221 238.826  1.00  0.00     0.049 C 
ATOM      9  C10 UNK     1       3.056  36.082 236.849  1.00  0.00     0.001 A 
ATOM     10  C7  UNK     1       1.681  36.180 236.635  1.00  0.00     0.008 A 
ENDBRANCH   1   3
BRANCH   1  11
ATOM     11  C4  UNK     1      -0.858  37.452 235.403  1.00  0.00     0.033 A 
ATOM     12  N1  UNK     1      -0.509  38.524 234.696  1.00  0.00    -0.354 N 
ATOM     13  C13 UNK     1      -0.978  38.286 233.433  1.00  0.00     0.180 A 
ATOM     14  H11 UNK     1      -0.008  39.348 235.006  1.00  0.00     0.166 HD
ATOM     15  N2  UNK     1      -1.589  37.125 233.351  1.00  0.00    -0.360 N 
ATOM     16  C11 UNK     1      -1.509  36.597 234.616  1.00  0.00     0.114 A 
ATOM     17  H2  UNK     1      -2.026  36.708 232.529  1.00  0.00     0.166 HD
ENDBRANCH   1  11
TORSDOF 2
ENDMDL
