MODEL 1
REMARK VINA RESULT:      -6.4      0.000      0.000
REMARK  7 active torsions:
REMARK  status: ('A' for Active; 'I' for Inactive)
REMARK    1  A    between atoms: O1_1  and  C6_11 
REMARK    2  A    between atoms: O2_2  and  C7_12 
REMARK    3  A    between atoms: O3_3  and  C9_14 
REMARK    4  A    between atoms: N1_5  and  C2_7 
REMARK    5  A    between atoms: C1_6  and  C2_7 
REMARK    6  A    between atoms: C1_6  and  C3_8 
REMARK    7  A    between atoms: C2_7  and  C7_12 
ROOT
ATOM      1  C3  UNK     1       1.409  43.763 229.029  1.00  0.00    -0.053 A 
ATOM      2  C4  UNK     1       1.795  44.213 230.280  1.00  0.00     0.046 A 
ATOM      3  C5  UNK     1       2.303  43.135 228.179  1.00  0.00     0.010 A 
ATOM      4  C6  UNK     1       3.115  44.032 230.693  1.00  0.00     0.099 A 
ATOM      5  C8  UNK     1       3.623  42.953 228.592  1.00  0.00     0.040 A 
ATOM      6  C9  UNK     1       4.029  43.401 229.849  1.00  0.00     0.098 A 
ENDROOT
BRANCH   1   7
ATOM      7  C1  UNK     1      -0.021  43.962 228.581  1.00  0.00     0.085 C 
BRANCH   7   8
ATOM      8  C2  UNK     1      -0.645  42.686 227.993  1.00  0.00     0.318 C 
BRANCH   8   9
ATOM      9  N1  UNK     1      -1.108  42.947 226.631  1.00  0.00     0.093 N 
ATOM     10  H7  UNK     1      -1.481  42.088 226.228  1.00  0.00     0.314 HD
ATOM     11  H8  UNK     1      -0.319  43.210 226.041  1.00  0.00     0.314 HD
ENDBRANCH   8   9
BRANCH   8  12
ATOM     12  C7  UNK     1      -1.857  42.224 228.783  1.00  0.00     0.174 C 
ATOM     13  O4  UNK     1      -2.870  41.743 228.292  1.00  0.00    -0.648 OA
BRANCH  12  14
ATOM     14  O2  UNK     1      -1.687  42.372 230.122  1.00  0.00    -0.775 OA
ATOM     15  H10 UNK     1      -2.359  42.970 230.512  1.00  0.00     0.167 HD
ENDBRANCH  12  14
ENDBRANCH   8  12
ENDBRANCH   7   8
ENDBRANCH   1   7
BRANCH   4  16
ATOM     16  O1  UNK     1       3.500  44.472 231.923  1.00  0.00    -0.358 OA
ATOM     17  H9  UNK     1       3.428  45.442 231.938  1.00  0.00     0.218 HD
ENDBRANCH   4  16
BRANCH   6  18
ATOM     18  O3  UNK     1       5.320  43.215 230.242  1.00  0.00    -0.358 OA
ATOM     19  H11 UNK     1       5.878  43.896 229.828  1.00  0.00     0.218 HD
ENDBRANCH   6  18
TORSDOF 7
ENDMDL
MODEL 2
REMARK VINA RESULT:      -6.1      2.877      5.576
REMARK  7 active torsions:
REMARK  status: ('A' for Active; 'I' for Inactive)
REMARK    1  A    between atoms: O1_1  and  C6_11 
REMARK    2  A    between atoms: O2_2  and  C7_12 
REMARK    3  A    between atoms: O3_3  and  C9_14 
REMARK    4  A    between atoms: N1_5  and  C2_7 
REMARK    5  A    between atoms: C1_6  and  C2_7 
REMARK    6  A    between atoms: C1_6  and  C3_8 
REMARK    7  A    between atoms: C2_7  and  C7_12 
ROOT
ATOM      1  C3  UNK     1      -0.116  42.900 228.648  1.00  0.00    -0.053 A 
ATOM      2  C4  UNK     1      -0.293  43.245 227.319  1.00  0.00     0.046 A 
ATOM      3  C5  UNK     1      -1.131  42.313 229.384  1.00  0.00     0.010 A 
ATOM      4  C6  UNK     1      -1.523  42.999 226.708  1.00  0.00     0.099 A 
ATOM      5  C8  UNK     1      -2.361  42.067 228.774  1.00  0.00     0.040 A 
ATOM      6  C9  UNK     1      -2.556  42.409 227.436  1.00  0.00     0.098 A 
ENDROOT
BRANCH   1   7
ATOM      7  C1  UNK     1       1.217  43.169 229.310  1.00  0.00     0.085 C 
BRANCH   7   8
ATOM      8  C2  UNK     1       1.817  44.527 228.913  1.00  0.00     0.318 C 
BRANCH   8   9
ATOM      9  N1  UNK     1       3.055  44.756 229.656  1.00  0.00     0.093 N 
ATOM     10  H7  UNK     1       2.960  44.380 230.599  1.00  0.00     0.314 HD
ATOM     11  H8  UNK     1       3.210  45.757 229.770  1.00  0.00     0.314 HD
ENDBRANCH   8   9
BRANCH   8  12
ATOM     12  C7  UNK     1       0.889  45.682 229.248  1.00  0.00     0.174 C 
ATOM     13  O4  UNK     1       0.625  46.609 228.492  1.00  0.00    -0.648 OA
BRANCH  12  14
ATOM     14  O2  UNK     1       0.344  45.564 230.485  1.00  0.00    -0.775 OA
ATOM     15  H10 UNK     1       0.349  46.417 230.971  1.00  0.00     0.167 HD
ENDBRANCH  12  14
ENDBRANCH   8  12
ENDBRANCH   7   8
ENDBRANCH   1   7
BRANCH   4  16
ATOM     16  O1  UNK     1      -1.702  43.337 225.401  1.00  0.00    -0.358 OA
ATOM     17  H9  UNK     1      -1.550  42.545 224.856  1.00  0.00     0.218 HD
ENDBRANCH   4  16
BRANCH   6  18
ATOM     18  O3  UNK     1      -3.761  42.161 226.850  1.00  0.00    -0.358 OA
ATOM     19  H11 UNK     1      -4.445  42.689 227.297  1.00  0.00     0.218 HD
ENDBRANCH   6  18
TORSDOF 7
ENDMDL
MODEL 3
REMARK VINA RESULT:      -6.0      2.716      5.361
REMARK  7 active torsions:
REMARK  status: ('A' for Active; 'I' for Inactive)
REMARK    1  A    between atoms: O1_1  and  C6_11 
REMARK    2  A    between atoms: O2_2  and  C7_12 
REMARK    3  A    between atoms: O3_3  and  C9_14 
REMARK    4  A    between atoms: N1_5  and  C2_7 
REMARK    5  A    between atoms: C1_6  and  C2_7 
REMARK    6  A    between atoms: C1_6  and  C3_8 
REMARK    7  A    between atoms: C2_7  and  C7_12 
ROOT
ATOM      1  C3  UNK     1      -0.430  42.842 228.621  1.00  0.00    -0.053 A 
ATOM      2  C4  UNK     1      -0.606  41.981 229.691  1.00  0.00     0.046 A 
ATOM      3  C5  UNK     1      -1.397  42.984 227.641  1.00  0.00     0.010 A 
ATOM      4  C6  UNK     1      -1.783  41.239 229.783  1.00  0.00     0.099 A 
ATOM      5  C8  UNK     1      -2.575  42.242 227.732  1.00  0.00     0.040 A 
ATOM      6  C9  UNK     1      -2.768  41.370 228.804  1.00  0.00     0.098 A 
ENDROOT
BRANCH   1   7
ATOM      7  C1  UNK     1       0.847  43.645 228.520  1.00  0.00     0.085 C 
BRANCH   7   8
ATOM      8  C2  UNK     1       0.629  45.039 227.909  1.00  0.00     0.318 C 
BRANCH   8   9
ATOM      9  N1  UNK     1       1.587  45.257 226.826  1.00  0.00     0.093 N 
ATOM     10  H7  UNK     1       2.158  46.075 227.037  1.00  0.00     0.314 HD
ATOM     11  H8  UNK     1       1.089  45.481 225.965  1.00  0.00     0.314 HD
ENDBRANCH   8   9
BRANCH   8  12
ATOM     12  C7  UNK     1       0.855  46.149 228.920  1.00  0.00     0.174 C 
ATOM     13  O4  UNK     1       1.256  47.274 228.647  1.00  0.00    -0.648 OA
BRANCH  12  14
ATOM     14  O2  UNK     1       0.530  45.772 230.183  1.00  0.00    -0.775 OA
ATOM     15  H10 UNK     1       0.336  46.543 230.757  1.00  0.00     0.167 HD
ENDBRANCH  12  14
ENDBRANCH   8  12
ENDBRANCH   7   8
ENDBRANCH   1   7
BRANCH   4  16
ATOM     16  O1  UNK     1      -1.961  40.391 230.834  1.00  0.00    -0.358 OA
ATOM     17  H9  UNK     1      -1.101  39.993 231.056  1.00  0.00     0.218 HD
ENDBRANCH   4  16
BRANCH   6  18
ATOM     18  O3  UNK     1      -3.923  40.652 228.884  1.00  0.00    -0.358 OA
ATOM     19  H11 UNK     1      -4.579  41.163 229.387  1.00  0.00     0.218 HD
ENDBRANCH   6  18
TORSDOF 7
ENDMDL
MODEL 4
REMARK VINA RESULT:      -6.0      1.689      5.565
REMARK  7 active torsions:
REMARK  status: ('A' for Active; 'I' for Inactive)
REMARK    1  A    between atoms: O1_1  and  C6_11 
REMARK    2  A    between atoms: O2_2  and  C7_12 
REMARK    3  A    between atoms: O3_3  and  C9_14 
REMARK    4  A    between atoms: N1_5  and  C2_7 
REMARK    5  A    between atoms: C1_6  and  C2_7 
REMARK    6  A    between atoms: C1_6  and  C3_8 
REMARK    7  A    between atoms: C2_7  and  C7_12 
ROOT
ATOM      1  C3  UNK     1       0.192  42.864 228.590  1.00  0.00    -0.053 A 
ATOM      2  C4  UNK     1      -0.459  42.099 229.543  1.00  0.00     0.046 A 
ATOM      3  C5  UNK     1      -0.437  43.243 227.416  1.00  0.00     0.010 A 
ATOM      4  C6  UNK     1      -1.776  41.701 229.316  1.00  0.00     0.099 A 
ATOM      5  C8  UNK     1      -1.754  42.845 227.188  1.00  0.00     0.040 A 
ATOM      6  C9  UNK     1      -2.424  42.074 228.138  1.00  0.00     0.098 A 
ENDROOT
BRANCH   1   7
ATOM      7  C1  UNK     1       1.620  43.294 228.836  1.00  0.00     0.085 C 
BRANCH   7   8
ATOM      8  C2  UNK     1       1.828  43.897 230.235  1.00  0.00     0.318 C 
BRANCH   8   9
ATOM      9  N1  UNK     1       1.114  45.170 230.334  1.00  0.00     0.093 N 
ATOM     10  H7  UNK     1       1.522  45.732 231.080  1.00  0.00     0.314 HD
ATOM     11  H8  UNK     1       0.147  45.003 230.609  1.00  0.00     0.314 HD
ENDBRANCH   8   9
BRANCH   8  12
ATOM     12  C7  UNK     1       3.290  44.196 230.517  1.00  0.00     0.174 C 
ATOM     13  O4  UNK     1       4.142  44.394 229.660  1.00  0.00    -0.648 OA
BRANCH  12  14
ATOM     14  O2  UNK     1       3.557  44.256 231.847  1.00  0.00    -0.775 OA
ATOM     15  H10 UNK     1       4.367  44.776 232.034  1.00  0.00     0.167 HD
ENDBRANCH  12  14
ENDBRANCH   8  12
ENDBRANCH   7   8
ENDBRANCH   1   7
BRANCH   4  16
ATOM     16  O1  UNK     1      -2.420  40.949 230.252  1.00  0.00    -0.358 OA
ATOM     17  H9  UNK     1      -3.369  40.943 230.040  1.00  0.00     0.218 HD
ENDBRANCH   4  16
BRANCH   6  18
ATOM     18  O3  UNK     1      -3.711  41.693 227.905  1.00  0.00    -0.358 OA
ATOM     19  H11 UNK     1      -3.875  40.844 228.350  1.00  0.00     0.218 HD
ENDBRANCH   6  18
TORSDOF 7
ENDMDL
MODEL 5
REMARK VINA RESULT:      -5.8      1.855      5.444
REMARK  7 active torsions:
REMARK  status: ('A' for Active; 'I' for Inactive)
REMARK    1  A    between atoms: O1_1  and  C6_11 
REMARK    2  A    between atoms: O2_2  and  C7_12 
REMARK    3  A    between atoms: O3_3  and  C9_14 
REMARK    4  A    between atoms: N1_5  and  C2_7 
REMARK    5  A    between atoms: C1_6  and  C2_7 
REMARK    6  A    between atoms: C1_6  and  C3_8 
REMARK    7  A    between atoms: C2_7  and  C7_12 
ROOT
ATOM      1  C3  UNK     1      -0.405  42.226 228.209  1.00  0.00    -0.053 A 
ATOM      2  C4  UNK     1      -0.439  41.493 229.383  1.00  0.00     0.046 A 
ATOM      3  C5  UNK     1      -1.566  42.568 227.537  1.00  0.00     0.010 A 
ATOM      4  C6  UNK     1      -1.669  41.087 229.899  1.00  0.00     0.099 A 
ATOM      5  C8  UNK     1      -2.797  42.162 228.052  1.00  0.00     0.040 A 
ATOM      6  C9  UNK     1      -2.849  41.422 229.234  1.00  0.00     0.098 A 
ENDROOT
BRANCH   1   7
ATOM      7  C1  UNK     1       0.929  42.665 227.649  1.00  0.00     0.085 C 
BRANCH   7   8
ATOM      8  C2  UNK     1       1.402  44.011 228.220  1.00  0.00     0.318 C 
BRANCH   8   9
ATOM      9  N1  UNK     1       1.637  44.955 227.127  1.00  0.00     0.093 N 
ATOM     10  H7  UNK     1       1.565  44.467 226.235  1.00  0.00     0.314 HD
ATOM     11  H8  UNK     1       2.591  45.308 227.175  1.00  0.00     0.314 HD
ENDBRANCH   8   9
BRANCH   8  12
ATOM     12  C7  UNK     1       2.714  43.884 228.974  1.00  0.00     0.174 C 
ATOM     13  O4  UNK     1       3.414  42.879 228.996  1.00  0.00    -0.648 OA
BRANCH  12  14
ATOM     14  O2  UNK     1       3.059  45.034 229.608  1.00  0.00    -0.775 OA
ATOM     15  H10 UNK     1       2.367  45.722 229.519  1.00  0.00     0.167 HD
ENDBRANCH  12  14
ENDBRANCH   8  12
ENDBRANCH   7   8
ENDBRANCH   1   7
BRANCH   4  16
ATOM     16  O1  UNK     1      -1.707  40.366 231.054  1.00  0.00    -0.358 OA
ATOM     17  H9  UNK     1      -1.821  40.982 231.797  1.00  0.00     0.218 HD
ENDBRANCH   4  16
BRANCH   6  18
ATOM     18  O3  UNK     1      -4.057  41.034 229.729  1.00  0.00    -0.358 OA
ATOM     19  H11 UNK     1      -4.135  40.068 229.652  1.00  0.00     0.218 HD
ENDBRANCH   6  18
TORSDOF 7
ENDMDL
MODEL 6
REMARK VINA RESULT:      -5.7      2.167      2.727
REMARK  7 active torsions:
REMARK  status: ('A' for Active; 'I' for Inactive)
REMARK    1  A    between atoms: O1_1  and  C6_11 
REMARK    2  A    between atoms: O2_2  and  C7_12 
REMARK    3  A    between atoms: O3_3  and  C9_14 
REMARK    4  A    between atoms: N1_5  and  C2_7 
REMARK    5  A    between atoms: C1_6  and  C2_7 
REMARK    6  A    between atoms: C1_6  and  C3_8 
REMARK    7  A    between atoms: C2_7  and  C7_12 
ROOT
ATOM      1  C3  UNK     1       0.148  42.374 228.977  1.00  0.00    -0.053 A 
ATOM      2  C4  UNK     1      -0.212  43.559 229.595  1.00  0.00     0.046 A 
ATOM      3  C5  UNK     1       1.448  42.141 228.562  1.00  0.00     0.010 A 
ATOM      4  C6  UNK     1       0.756  44.541 229.804  1.00  0.00     0.099 A 
ATOM      5  C8  UNK     1       2.416  43.122 228.770  1.00  0.00     0.040 A 
ATOM      6  C9  UNK     1       2.071  44.323 229.391  1.00  0.00     0.098 A 
ENDROOT
BRANCH   1   7
ATOM      7  C1  UNK     1      -0.902  41.310 228.750  1.00  0.00     0.085 C 
BRANCH   7   8
ATOM      8  C2  UNK     1      -2.065  41.397 229.752  1.00  0.00     0.318 C 
BRANCH   8   9
ATOM      9  N1  UNK     1      -1.901  40.377 230.787  1.00  0.00     0.093 N 
ATOM     10  H7  UNK     1      -0.910  40.170 230.907  1.00  0.00     0.314 HD
ATOM     11  H8  UNK     1      -2.333  39.505 230.485  1.00  0.00     0.314 HD
ENDBRANCH   8   9
BRANCH   8  12
ATOM     12  C7  UNK     1      -3.408  41.135 229.094  1.00  0.00     0.174 C 
ATOM     13  O4  UNK     1      -4.412  40.750 229.681  1.00  0.00    -0.648 OA
BRANCH  12  14
ATOM     14  O2  UNK     1      -3.394  41.408 227.764  1.00  0.00    -0.775 OA
ATOM     15  H10 UNK     1      -3.229  42.358 227.587  1.00  0.00     0.167 HD
ENDBRANCH  12  14
ENDBRANCH   8  12
ENDBRANCH   7   8
ENDBRANCH   1   7
BRANCH   4  16
ATOM     16  O1  UNK     1       0.407  45.709 230.412  1.00  0.00    -0.358 OA
ATOM     17  H9  UNK     1      -0.288  46.135 229.882  1.00  0.00     0.218 HD
ENDBRANCH   4  16
BRANCH   6  18
ATOM     18  O3  UNK     1       3.026  45.273 229.591  1.00  0.00    -0.358 OA
ATOM     19  H11 UNK     1       3.750  45.132 228.957  1.00  0.00     0.218 HD
ENDBRANCH   6  18
TORSDOF 7
ENDMDL
MODEL 7
REMARK VINA RESULT:      -5.0      2.712      3.472
REMARK  7 active torsions:
REMARK  status: ('A' for Active; 'I' for Inactive)
REMARK    1  A    between atoms: O1_1  and  C6_11 
REMARK    2  A    between atoms: O2_2  and  C7_12 
REMARK    3  A    between atoms: O3_3  and  C9_14 
REMARK    4  A    between atoms: N1_5  and  C2_7 
REMARK    5  A    between atoms: C1_6  and  C2_7 
REMARK    6  A    between atoms: C1_6  and  C3_8 
REMARK    7  A    between atoms: C2_7  and  C7_12 
ROOT
ATOM      1  C3  UNK     1      -0.463  42.720 229.255  1.00  0.00    -0.053 A 
ATOM      2  C4  UNK     1       0.572  43.475 229.782  1.00  0.00     0.046 A 
ATOM      3  C5  UNK     1      -0.900  42.901 227.955  1.00  0.00     0.010 A 
ATOM      4  C6  UNK     1       1.186  44.440 228.985  1.00  0.00     0.099 A 
ATOM      5  C8  UNK     1      -0.287  43.867 227.157  1.00  0.00     0.040 A 
ATOM      6  C9  UNK     1       0.757  44.636 227.672  1.00  0.00     0.098 A 
ENDROOT
BRANCH   1   7
ATOM      7  C1  UNK     1      -1.129  41.674 230.121  1.00  0.00     0.085 C 
BRANCH   7   8
ATOM      8  C2  UNK     1      -2.152  40.825 229.349  1.00  0.00     0.318 C 
BRANCH   8   9
ATOM      9  N1  UNK     1      -3.503  41.140 229.811  1.00  0.00     0.093 N 
ATOM     10  H7  UNK     1      -3.861  40.365 230.368  1.00  0.00     0.314 HD
ATOM     11  H8  UNK     1      -4.131  41.221 229.012  1.00  0.00     0.314 HD
ENDBRANCH   8   9
BRANCH   8  12
ATOM     12  C7  UNK     1      -1.950  39.337 229.578  1.00  0.00     0.174 C 
ATOM     13  O4  UNK     1      -2.827  38.488 229.478  1.00  0.00    -0.648 OA
BRANCH  12  14
ATOM     14  O2  UNK     1      -0.662  39.031 229.882  1.00  0.00    -0.775 OA
ATOM     15  H10 UNK     1      -0.592  38.541 230.728  1.00  0.00     0.167 HD
ENDBRANCH  12  14
ENDBRANCH   8  12
ENDBRANCH   7   8
ENDBRANCH   1   7
BRANCH   4  16
ATOM     16  O1  UNK     1       2.204  45.185 229.498  1.00  0.00    -0.358 OA
ATOM     17  H9  UNK     1       2.110  45.208 230.466  1.00  0.00     0.218 HD
ENDBRANCH   4  16
BRANCH   6  18
ATOM     18  O3  UNK     1       1.349  45.575 226.882  1.00  0.00    -0.358 OA
ATOM     19  H11 UNK     1       1.497  45.198 225.998  1.00  0.00     0.218 HD
ENDBRANCH   6  18
TORSDOF 7
ENDMDL
MODEL 8
REMARK VINA RESULT:      -5.0      1.752      2.397
REMARK  7 active torsions:
REMARK  status: ('A' for Active; 'I' for Inactive)
REMARK    1  A    between atoms: O1_1  and  C6_11 
REMARK    2  A    between atoms: O2_2  and  C7_12 
REMARK    3  A    between atoms: O3_3  and  C9_14 
REMARK    4  A    between atoms: N1_5  and  C2_7 
REMARK    5  A    between atoms: C1_6  and  C2_7 
REMARK    6  A    between atoms: C1_6  and  C3_8 
REMARK    7  A    between atoms: C2_7  and  C7_12 
ROOT
ATOM      1  C3  UNK     1      -0.476  42.655 228.621  1.00  0.00    -0.053 A 
ATOM      2  C4  UNK     1      -0.176  43.476 229.695  1.00  0.00     0.046 A 
ATOM      3  C5  UNK     1       0.519  42.119 227.821  1.00  0.00     0.010 A 
ATOM      4  C6  UNK     1       1.157  43.771 229.977  1.00  0.00     0.099 A 
ATOM      5  C8  UNK     1       1.853  42.415 228.102  1.00  0.00     0.040 A 
ATOM      6  C9  UNK     1       2.172  43.241 229.181  1.00  0.00     0.098 A 
ENDROOT
BRANCH   1   7
ATOM      7  C1  UNK     1      -1.922  42.335 228.316  1.00  0.00     0.085 C 
BRANCH   7   8
ATOM      8  C2  UNK     1      -2.236  42.376 226.812  1.00  0.00     0.318 C 
BRANCH   8   9
ATOM      9  N1  UNK     1      -2.173  43.755 226.331  1.00  0.00     0.093 N 
ATOM     10  H7  UNK     1      -1.296  43.902 225.834  1.00  0.00     0.314 HD
ATOM     11  H8  UNK     1      -2.153  44.396 227.123  1.00  0.00     0.314 HD
ENDBRANCH   8   9
BRANCH   8  12
ATOM     12  C7  UNK     1      -3.637  41.873 226.506  1.00  0.00     0.174 C 
ATOM     13  O4  UNK     1      -4.267  42.134 225.489  1.00  0.00    -0.648 OA
BRANCH  12  14
ATOM     14  O2  UNK     1      -4.118  41.061 227.482  1.00  0.00    -0.775 OA
ATOM     15  H10 UNK     1      -3.405  40.542 227.911  1.00  0.00     0.167 HD
ENDBRANCH  12  14
ENDBRANCH   8  12
ENDBRANCH   7   8
ENDBRANCH   1   7
BRANCH   4  16
ATOM     16  O1  UNK     1       1.457  44.578 231.033  1.00  0.00    -0.358 OA
ATOM     17  H9  UNK     1       2.162  44.155 231.552  1.00  0.00     0.218 HD
ENDBRANCH   4  16
BRANCH   6  18
ATOM     18  O3  UNK     1       3.479  43.521 229.446  1.00  0.00    -0.358 OA
ATOM     19  H11 UNK     1       3.956  42.688 229.600  1.00  0.00     0.218 HD
ENDBRANCH   6  18
TORSDOF 7
ENDMDL
MODEL 9
REMARK VINA RESULT:      -4.9      2.680      5.974
REMARK  7 active torsions:
REMARK  status: ('A' for Active; 'I' for Inactive)
REMARK    1  A    between atoms: O1_1  and  C6_11 
REMARK    2  A    between atoms: O2_2  and  C7_12 
REMARK    3  A    between atoms: O3_3  and  C9_14 
REMARK    4  A    between atoms: N1_5  and  C2_7 
REMARK    5  A    between atoms: C1_6  and  C2_7 
REMARK    6  A    between atoms: C1_6  and  C3_8 
REMARK    7  A    between atoms: C2_7  and  C7_12 
ROOT
ATOM      1  C3  UNK     1      -1.192  41.747 229.058  1.00  0.00    -0.053 A 
ATOM      2  C4  UNK     1      -2.562  41.831 228.876  1.00  0.00     0.046 A 
ATOM      3  C5  UNK     1      -0.604  40.620 229.606  1.00  0.00     0.010 A 
ATOM      4  C6  UNK     1      -3.368  40.757 229.255  1.00  0.00     0.099 A 
ATOM      5  C8  UNK     1      -1.409  39.546 229.985  1.00  0.00     0.040 A 
ATOM      6  C9  UNK     1      -2.791  39.615 229.809  1.00  0.00     0.098 A 
ENDROOT
BRANCH   1   7
ATOM      7  C1  UNK     1      -0.320  42.912 228.649  1.00  0.00     0.085 C 
BRANCH   7   8
ATOM      8  C2  UNK     1       1.105  42.819 229.219  1.00  0.00     0.318 C 
BRANCH   8   9
ATOM      9  N1  UNK     1       1.381  43.990 230.050  1.00  0.00     0.093 N 
ATOM     10  H7  UNK     1       1.804  44.720 229.479  1.00  0.00     0.314 HD
ATOM     11  H8  UNK     1       2.074  43.755 230.759  1.00  0.00     0.314 HD
ENDBRANCH   8   9
BRANCH   8  12
ATOM     12  C7  UNK     1       2.159  42.804 228.126  1.00  0.00     0.174 C 
ATOM     13  O4  UNK     1       3.145  42.078 228.114  1.00  0.00    -0.648 OA
BRANCH  12  14
ATOM     14  O2  UNK     1       1.875  43.674 227.122  1.00  0.00    -0.775 OA
ATOM     15  H10 UNK     1       2.685  44.090 226.758  1.00  0.00     0.167 HD
ENDBRANCH  12  14
ENDBRANCH   8  12
ENDBRANCH   7   8
ENDBRANCH   1   7
BRANCH   4  16
ATOM     16  O1  UNK     1      -4.716  40.835 229.078  1.00  0.00    -0.358 OA
ATOM     17  H9  UNK     1      -4.891  41.353 228.273  1.00  0.00     0.218 HD
ENDBRANCH   4  16
BRANCH   6  18
ATOM     18  O3  UNK     1      -3.567  38.558 230.181  1.00  0.00    -0.358 OA
ATOM     19  H11 UNK     1      -4.499  38.836 230.185  1.00  0.00     0.218 HD
ENDBRANCH   6  18
TORSDOF 7
ENDMDL
