MODEL 1
REMARK VINA RESULT:      -6.9      0.000      0.000
REMARK  3 active torsions:
REMARK  status: ('A' for Active; 'I' for Inactive)
REMARK    1  A    between atoms: C6_6  and  C8_11 
REMARK    2  A    between atoms: C7_7  and  C8_11 
REMARK    3  A    between atoms: C12_15  and  N2_16 
ROOT
ATOM      1  C2  UNK     1       0.598  44.462 227.693  1.00  0.00     0.033 C 
ATOM      2  C3  UNK     1       1.078  46.593 228.826  1.00  0.00     0.224 C 
ATOM      3  C4  UNK     1       0.923  44.622 230.161  1.00  0.00     0.237 C 
ATOM      4  C5  UNK     1       1.403  45.755 227.615  1.00  0.00     0.105 C 
ATOM      5  O1  UNK     1       1.066  47.815 228.750  1.00  0.00    -0.273 OA
ATOM      6  O2  UNK     1       1.062  44.201 231.300  1.00  0.00    -0.272 OA
ATOM      7  N1  UNK     1       0.802  45.941 229.958  1.00  0.00    -0.297 N 
ATOM      8  C8  UNK     1       0.869  43.667 228.974  1.00  0.00     0.068 C 
ATOM      9  H8  UNK     1       0.475  46.489 230.728  1.00  0.00     0.171 HD
ENDROOT
BRANCH   8  10
ATOM     10  C6  UNK     1      -0.301  42.691 229.023  1.00  0.00    -0.040 A 
ATOM     11  C10 UNK     1      -1.430  42.924 228.226  1.00  0.00     0.010 A 
ATOM     12  C11 UNK     1      -2.530  42.071 228.261  1.00  0.00     0.024 A 
ATOM     13  C12 UNK     1      -2.535  40.975 229.109  1.00  0.00     0.005 A 
ATOM     14  C1  UNK     1      -1.429  40.732 229.921  1.00  0.00     0.024 A 
ATOM     15  C13 UNK     1      -0.323  41.586 229.884  1.00  0.00     0.010 A 
BRANCH  13  16
ATOM     16  N2  UNK     1      -3.616  40.163 229.130  1.00  0.00    -0.303 NA
ATOM     17  H14 UNK     1      -4.334  40.577 229.690  1.00  0.00     0.124 HD
ATOM     18  H15 UNK     1      -3.954  40.033 228.197  1.00  0.00     0.124 HD
ENDBRANCH  13  16
ENDBRANCH   8  10
BRANCH   8  19
ATOM     19  C7  UNK     1       2.229  42.967 228.813  1.00  0.00     0.020 C 
ATOM     20  C9  UNK     1       2.463  42.298 227.481  1.00  0.00     0.006 C 
ENDBRANCH   8  19
TORSDOF 3
ENDMDL
MODEL 2
REMARK VINA RESULT:      -6.7      2.122      3.145
REMARK  3 active torsions:
REMARK  status: ('A' for Active; 'I' for Inactive)
REMARK    1  A    between atoms: C6_6  and  C8_11 
REMARK    2  A    between atoms: C7_7  and  C8_11 
REMARK    3  A    between atoms: C12_15  and  N2_16 
ROOT
ATOM      1  C2  UNK     1       1.604  44.174 230.212  1.00  0.00     0.033 C 
ATOM      2  C3  UNK     1       3.965  43.499 230.050  1.00  0.00     0.224 C 
ATOM      3  C4  UNK     1       2.582  43.214 228.127  1.00  0.00     0.237 C 
ATOM      4  C5  UNK     1       3.034  44.566 230.569  1.00  0.00     0.105 C 
ATOM      5  O1  UNK     1       4.991  43.222 230.658  1.00  0.00    -0.273 OA
ATOM      6  O2  UNK     1       2.602  42.885 226.950  1.00  0.00    -0.272 OA
ATOM      7  N1  UNK     1       3.610  42.883 228.921  1.00  0.00    -0.297 N 
ATOM      8  C8  UNK     1       1.398  43.980 228.706  1.00  0.00     0.068 C 
ATOM      9  H8  UNK     1       4.165  42.100 228.639  1.00  0.00     0.171 HD
ENDROOT
BRANCH   8  10
ATOM     10  C6  UNK     1       0.080  43.217 228.639  1.00  0.00    -0.040 A 
ATOM     11  C10 UNK     1      -0.745  43.357 227.514  1.00  0.00     0.010 A 
ATOM     12  C11 UNK     1      -1.967  42.697 227.424  1.00  0.00     0.024 A 
ATOM     13  C12 UNK     1      -2.404  41.897 228.467  1.00  0.00     0.005 A 
ATOM     14  C1  UNK     1      -1.608  41.754 229.602  1.00  0.00     0.024 A 
ATOM     15  C13 UNK     1      -0.379  42.413 229.690  1.00  0.00     0.010 A 
BRANCH  13  16
ATOM     16  N2  UNK     1      -3.598  41.269 228.362  1.00  0.00    -0.303 NA
ATOM     17  H14 UNK     1      -4.187  41.544 229.121  1.00  0.00     0.124 HD
ATOM     18  H15 UNK     1      -4.031  41.521 227.496  1.00  0.00     0.124 HD
ENDBRANCH  13  16
ENDBRANCH   8  10
BRANCH   8  19
ATOM     19  C7  UNK     1       1.319  45.374 228.060  1.00  0.00     0.020 C 
ATOM     20  C9  UNK     1       0.846  46.485 228.964  1.00  0.00     0.006 C 
ENDBRANCH   8  19
TORSDOF 3
ENDMDL
MODEL 3
REMARK VINA RESULT:      -6.0      8.279      9.842
REMARK  3 active torsions:
REMARK  status: ('A' for Active; 'I' for Inactive)
REMARK    1  A    between atoms: C6_6  and  C8_11 
REMARK    2  A    between atoms: C7_7  and  C8_11 
REMARK    3  A    between atoms: C12_15  and  N2_16 
ROOT
ATOM      1  C2  UNK     1       1.790  38.428 236.210  1.00  0.00     0.033 C 
ATOM      2  C3  UNK     1       0.360  39.101 238.097  1.00  0.00     0.224 C 
ATOM      3  C4  UNK     1       0.225  36.844 237.335  1.00  0.00     0.237 C 
ATOM      4  C5  UNK     1       1.745  39.222 237.512  1.00  0.00     0.105 C 
ATOM      5  O1  UNK     1      -0.132  40.030 238.724  1.00  0.00    -0.273 OA
ATOM      6  O2  UNK     1      -0.286  35.761 237.578  1.00  0.00    -0.272 OA
ATOM      7  N1  UNK     1      -0.286  37.951 237.890  1.00  0.00    -0.297 N 
ATOM      8  C8  UNK     1       1.423  36.953 236.399  1.00  0.00     0.068 C 
ATOM      9  H8  UNK     1      -1.244  37.913 238.176  1.00  0.00     0.171 HD
ENDROOT
BRANCH   8  10
ATOM     10  C6  UNK     1       1.135  36.489 234.976  1.00  0.00    -0.040 A 
ATOM     11  C10 UNK     1       1.248  37.399 233.915  1.00  0.00     0.010 A 
ATOM     12  C11 UNK     1       0.970  37.022 232.604  1.00  0.00     0.024 A 
ATOM     13  C12 UNK     1       0.551  35.731 232.325  1.00  0.00     0.005 A 
ATOM     14  C1  UNK     1       0.418  34.813 233.365  1.00  0.00     0.024 A 
ATOM     15  C13 UNK     1       0.701  35.190 234.680  1.00  0.00     0.010 A 
BRANCH  13  16
ATOM     16  N2  UNK     1       0.281  35.388 231.045  1.00  0.00    -0.303 NA
ATOM     17  H14 UNK     1      -0.109  34.467 231.021  1.00  0.00     0.124 HD
ATOM     18  H15 UNK     1      -0.375  36.037 230.657  1.00  0.00     0.124 HD
ENDBRANCH  13  16
ENDBRANCH   8  10
BRANCH   8  19
ATOM     19  C7  UNK     1       2.636  36.245 237.028  1.00  0.00     0.020 C 
ATOM     20  C9  UNK     1       3.968  36.917 236.808  1.00  0.00     0.006 C 
ENDBRANCH   8  19
TORSDOF 3
ENDMDL
MODEL 4
REMARK VINA RESULT:      -5.7      2.110      3.135
REMARK  3 active torsions:
REMARK  status: ('A' for Active; 'I' for Inactive)
REMARK    1  A    between atoms: C6_6  and  C8_11 
REMARK    2  A    between atoms: C7_7  and  C8_11 
REMARK    3  A    between atoms: C12_15  and  N2_16 
ROOT
ATOM      1  C2  UNK     1       0.964  42.175 227.876  1.00  0.00     0.033 C 
ATOM      2  C3  UNK     1       2.343  43.872 229.004  1.00  0.00     0.224 C 
ATOM      3  C4  UNK     1       0.012  43.804 229.508  1.00  0.00     0.237 C 
ATOM      4  C5  UNK     1       2.298  42.428 228.570  1.00  0.00     0.105 C 
ATOM      5  O1  UNK     1       3.404  44.484 229.014  1.00  0.00    -0.273 OA
ATOM      6  O2  UNK     1      -0.846  44.294 230.227  1.00  0.00    -0.272 OA
ATOM      7  N1  UNK     1       1.186  44.433 229.362  1.00  0.00    -0.297 N 
ATOM      8  C8  UNK     1      -0.242  42.497 228.765  1.00  0.00     0.068 C 
ATOM      9  H8  UNK     1       1.197  45.418 229.538  1.00  0.00     0.171 HD
ENDROOT
BRANCH   8  10
ATOM     10  C6  UNK     1      -1.391  42.572 227.766  1.00  0.00    -0.040 A 
ATOM     11  C10 UNK     1      -2.658  42.100 228.131  1.00  0.00     0.010 A 
ATOM     12  C11 UNK     1      -3.727  42.127 227.240  1.00  0.00     0.024 A 
ATOM     13  C12 UNK     1      -3.549  42.610 225.954  1.00  0.00     0.005 A 
ATOM     14  C1  UNK     1      -2.294  43.072 225.563  1.00  0.00     0.024 A 
ATOM     15  C13 UNK     1      -1.222  43.048 226.459  1.00  0.00     0.010 A 
BRANCH  13  16
ATOM     16  N2  UNK     1      -4.600  42.622 225.102  1.00  0.00    -0.303 NA
ATOM     17  H14 UNK     1      -4.398  42.040 224.314  1.00  0.00     0.124 HD
ATOM     18  H15 UNK     1      -5.413  42.276 225.572  1.00  0.00     0.124 HD
ENDBRANCH  13  16
ENDBRANCH   8  10
BRANCH   8  19
ATOM     19  C7  UNK     1      -0.399  41.350 229.777  1.00  0.00     0.020 C 
ATOM     20  C9  UNK     1      -0.368  39.959 229.193  1.00  0.00     0.006 C 
ENDBRANCH   8  19
TORSDOF 3
ENDMDL
MODEL 5
REMARK VINA RESULT:      -5.7      8.831     10.754
REMARK  3 active torsions:
REMARK  status: ('A' for Active; 'I' for Inactive)
REMARK    1  A    between atoms: C6_6  and  C8_11 
REMARK    2  A    between atoms: C7_7  and  C8_11 
REMARK    3  A    between atoms: C12_15  and  N2_16 
ROOT
ATOM      1  C2  UNK     1       3.175  36.792 237.006  1.00  0.00     0.033 C 
ATOM      2  C3  UNK     1       2.553  37.877 239.125  1.00  0.00     0.224 C 
ATOM      3  C4  UNK     1       0.863  36.683 237.937  1.00  0.00     0.237 C 
ATOM      4  C5  UNK     1       3.619  37.061 238.440  1.00  0.00     0.105 C 
ATOM      5  O1  UNK     1       2.855  38.705 239.975  1.00  0.00    -0.273 OA
ATOM      6  O2  UNK     1      -0.299  36.310 238.005  1.00  0.00    -0.272 OA
ATOM      7  N1  UNK     1       1.290  37.656 238.755  1.00  0.00    -0.297 N 
ATOM      8  C8  UNK     1       1.825  36.070 236.927  1.00  0.00     0.068 C 
ATOM      9  H8  UNK     1       0.595  38.275 239.123  1.00  0.00     0.171 HD
ENDROOT
BRANCH   8  10
ATOM     10  C6  UNK     1       1.410  36.284 235.476  1.00  0.00    -0.040 A 
ATOM     11  C10 UNK     1       0.769  35.250 234.779  1.00  0.00     0.010 A 
ATOM     12  C11 UNK     1       0.397  35.397 233.445  1.00  0.00     0.024 A 
ATOM     13  C12 UNK     1       0.675  36.574 232.770  1.00  0.00     0.005 A 
ATOM     14  C1  UNK     1       1.324  37.611 233.438  1.00  0.00     0.024 A 
ATOM     15  C13 UNK     1       1.695  37.465 234.778  1.00  0.00     0.010 A 
BRANCH  13  16
ATOM     16  N2  UNK     1       0.310  36.692 231.473  1.00  0.00    -0.303 NA
ATOM     17  H14 UNK     1       0.633  37.568 231.114  1.00  0.00     0.124 HD
ATOM     18  H15 UNK     1       0.713  35.945 230.944  1.00  0.00     0.124 HD
ENDBRANCH  13  16
ENDBRANCH   8  10
BRANCH   8  19
ATOM     19  C7  UNK     1       2.063  34.591 237.272  1.00  0.00     0.020 C 
ATOM     20  C9  UNK     1       3.288  33.966 236.652  1.00  0.00     0.006 C 
ENDBRANCH   8  19
TORSDOF 3
ENDMDL
MODEL 6
REMARK VINA RESULT:      -5.6      1.962      2.955
REMARK  3 active torsions:
REMARK  status: ('A' for Active; 'I' for Inactive)
REMARK    1  A    between atoms: C6_6  and  C8_11 
REMARK    2  A    between atoms: C7_7  and  C8_11 
REMARK    3  A    between atoms: C12_15  and  N2_16 
ROOT
ATOM      1  C2  UNK     1      -0.150  43.834 229.857  1.00  0.00     0.033 C 
ATOM      2  C3  UNK     1       2.306  43.952 229.751  1.00  0.00     0.224 C 
ATOM      3  C4  UNK     1       1.195  42.378 228.342  1.00  0.00     0.237 C 
ATOM      4  C5  UNK     1       1.047  44.778 229.830  1.00  0.00     0.105 C 
ATOM      5  O1  UNK     1       3.334  44.333 230.295  1.00  0.00    -0.273 OA
ATOM      6  O2  UNK     1       1.383  41.563 227.452  1.00  0.00    -0.272 OA
ATOM      7  N1  UNK     1       2.234  42.802 229.075  1.00  0.00    -0.297 N 
ATOM      8  C8  UNK     1      -0.204  42.905 228.641  1.00  0.00     0.068 C 
ATOM      9  H8  UNK     1       3.031  42.201 229.120  1.00  0.00     0.171 HD
ENDROOT
BRANCH   8  10
ATOM     10  C6  UNK     1      -1.186  41.825 229.081  1.00  0.00    -0.040 A 
ATOM     11  C10 UNK     1      -0.700  40.609 229.580  1.00  0.00     0.010 A 
ATOM     12  C11 UNK     1      -1.563  39.588 229.969  1.00  0.00     0.024 A 
ATOM     13  C12 UNK     1      -2.934  39.752 229.848  1.00  0.00     0.005 A 
ATOM     14  C1  UNK     1      -3.440  40.947 229.341  1.00  0.00     0.024 A 
ATOM     15  C13 UNK     1      -2.574  41.973 228.954  1.00  0.00     0.010 A 
BRANCH  13  16
ATOM     16  N2  UNK     1      -3.754  38.745 230.227  1.00  0.00    -0.303 NA
ATOM     17  H14 UNK     1      -3.341  38.248 230.990  1.00  0.00     0.124 HD
ATOM     18  H15 UNK     1      -4.635  39.122 230.513  1.00  0.00     0.124 HD
ENDBRANCH  13  16
ENDBRANCH   8  10
BRANCH   8  19
ATOM     19  C7  UNK     1      -0.712  43.728 227.444  1.00  0.00     0.020 C 
ATOM     20  C9  UNK     1      -1.412  42.941 226.363  1.00  0.00     0.006 C 
ENDBRANCH   8  19
TORSDOF 3
ENDMDL
MODEL 7
REMARK VINA RESULT:      -5.5     10.827     12.568
REMARK  3 active torsions:
REMARK  status: ('A' for Active; 'I' for Inactive)
REMARK    1  A    between atoms: C6_6  and  C8_11 
REMARK    2  A    between atoms: C7_7  and  C8_11 
REMARK    3  A    between atoms: C12_15  and  N2_16 
ROOT
ATOM      1  C2  UNK     1       3.507  36.524 237.217  1.00  0.00     0.033 C 
ATOM      2  C3  UNK     1       1.861  37.867 235.976  1.00  0.00     0.224 C 
ATOM      3  C4  UNK     1       1.100  35.886 237.067  1.00  0.00     0.237 C 
ATOM      4  C5  UNK     1       3.035  37.943 236.919  1.00  0.00     0.105 C 
ATOM      5  O1  UNK     1       1.680  38.742 235.139  1.00  0.00    -0.273 OA
ATOM      6  O2  UNK     1       0.096  35.241 237.329  1.00  0.00    -0.272 OA
ATOM      7  N1  UNK     1       1.053  36.812 236.099  1.00  0.00    -0.297 N 
ATOM      8  C8  UNK     1       2.406  35.642 237.815  1.00  0.00     0.068 C 
ATOM      9  H8  UNK     1       0.344  36.702 235.402  1.00  0.00     0.171 HD
ENDROOT
BRANCH   8  10
ATOM     10  C6  UNK     1       2.962  34.234 237.636  1.00  0.00    -0.040 A 
ATOM     11  C10 UNK     1       3.057  33.686 236.349  1.00  0.00     0.010 A 
ATOM     12  C11 UNK     1       3.535  32.394 236.145  1.00  0.00     0.024 A 
ATOM     13  C12 UNK     1       3.912  31.613 237.226  1.00  0.00     0.005 A 
ATOM     14  C1  UNK     1       3.813  32.132 238.515  1.00  0.00     0.024 A 
ATOM     15  C13 UNK     1       3.336  33.430 238.720  1.00  0.00     0.010 A 
BRANCH  13  16
ATOM     16  N2  UNK     1       4.369  30.359 237.005  1.00  0.00    -0.303 NA
ATOM     17  H14 UNK     1       5.307  30.401 236.662  1.00  0.00     0.124 HD
ATOM     18  H15 UNK     1       4.349  29.842 237.861  1.00  0.00     0.124 HD
ENDBRANCH  13  16
ENDBRANCH   8  10
BRANCH   8  19
ATOM     19  C7  UNK     1       2.237  36.038 239.292  1.00  0.00     0.020 C 
ATOM     20  C9  UNK     1       3.393  36.792 239.900  1.00  0.00     0.006 C 
ENDBRANCH   8  19
TORSDOF 3
ENDMDL
MODEL 8
REMARK VINA RESULT:      -5.5      1.810      2.456
REMARK  3 active torsions:
REMARK  status: ('A' for Active; 'I' for Inactive)
REMARK    1  A    between atoms: C6_6  and  C8_11 
REMARK    2  A    between atoms: C7_7  and  C8_11 
REMARK    3  A    between atoms: C12_15  and  N2_16 
ROOT
ATOM      1  C2  UNK     1      -0.057  44.438 227.259  1.00  0.00     0.033 C 
ATOM      2  C3  UNK     1       0.588  45.534 229.366  1.00  0.00     0.224 C 
ATOM      3  C4  UNK     1      -0.304  43.323 229.477  1.00  0.00     0.237 C 
ATOM      4  C5  UNK     1       1.003  45.301 227.935  1.00  0.00     0.105 C 
ATOM      5  O1  UNK     1       0.858  46.588 229.927  1.00  0.00    -0.273 OA
ATOM      6  O2  UNK     1      -0.535  42.402 230.246  1.00  0.00    -0.272 OA
ATOM      7  N1  UNK     1      -0.084  44.550 229.969  1.00  0.00    -0.297 N 
ATOM      8  C8  UNK     1      -0.278  43.099 227.969  1.00  0.00     0.068 C 
ATOM      9  H8  UNK     1      -0.459  44.748 230.875  1.00  0.00     0.171 HD
ENDROOT
BRANCH   8  10
ATOM     10  C6  UNK     1      -1.609  42.625 227.396  1.00  0.00    -0.040 A 
ATOM     11  C10 UNK     1      -2.495  41.904 228.208  1.00  0.00     0.010 A 
ATOM     12  C11 UNK     1      -3.709  41.432 227.716  1.00  0.00     0.024 A 
ATOM     13  C12 UNK     1      -4.056  41.652 226.393  1.00  0.00     0.005 A 
ATOM     14  C1  UNK     1      -3.184  42.353 225.563  1.00  0.00     0.024 A 
ATOM     15  C13 UNK     1      -1.968  42.831 226.058  1.00  0.00     0.010 A 
BRANCH  13  16
ATOM     16  N2  UNK     1      -5.237  41.179 225.934  1.00  0.00    -0.303 NA
ATOM     17  H14 UNK     1      -5.482  41.655 225.090  1.00  0.00     0.124 HD
ATOM     18  H15 UNK     1      -5.156  40.198 225.753  1.00  0.00     0.124 HD
ENDBRANCH  13  16
ENDBRANCH   8  10
BRANCH   8  19
ATOM     19  C7  UNK     1       0.897  42.175 227.605  1.00  0.00     0.020 C 
ATOM     20  C9  UNK     1       2.191  42.451 228.329  1.00  0.00     0.006 C 
ENDBRANCH   8  19
TORSDOF 3
ENDMDL
MODEL 9
REMARK VINA RESULT:      -5.5      8.119     10.383
REMARK  3 active torsions:
REMARK  status: ('A' for Active; 'I' for Inactive)
REMARK    1  A    between atoms: C6_6  and  C8_11 
REMARK    2  A    between atoms: C7_7  and  C8_11 
REMARK    3  A    between atoms: C12_15  and  N2_16 
ROOT
ATOM      1  C2  UNK     1      -0.618  37.059 236.225  1.00  0.00     0.033 C 
ATOM      2  C3  UNK     1      -1.632  37.989 234.184  1.00  0.00     0.224 C 
ATOM      3  C4  UNK     1       0.738  37.711 234.234  1.00  0.00     0.237 C 
ATOM      4  C5  UNK     1      -1.784  36.933 235.250  1.00  0.00     0.105 C 
ATOM      5  O1  UNK     1      -2.619  38.510 233.680  1.00  0.00    -0.273 OA
ATOM      6  O2  UNK     1       1.746  37.803 233.550  1.00  0.00    -0.272 OA
ATOM      7  N1  UNK     1      -0.387  38.321 233.834  1.00  0.00    -0.297 N 
ATOM      8  C8  UNK     1       0.747  36.927 235.542  1.00  0.00     0.068 C 
ATOM      9  H8  UNK     1      -0.283  39.099 233.214  1.00  0.00     0.171 HD
ENDROOT
BRANCH   8  10
ATOM     10  C6  UNK     1       1.706  37.485 236.586  1.00  0.00    -0.040 A 
ATOM     11  C10 UNK     1       1.343  38.622 237.322  1.00  0.00     0.010 A 
ATOM     12  C11 UNK     1       2.201  39.178 238.267  1.00  0.00     0.024 A 
ATOM     13  C12 UNK     1       3.451  38.622 238.485  1.00  0.00     0.005 A 
ATOM     14  C1  UNK     1       3.839  37.500 237.756  1.00  0.00     0.024 A 
ATOM     15  C13 UNK     1       2.977  36.939 236.809  1.00  0.00     0.010 A 
BRANCH  13  16
ATOM     16  N2  UNK     1       4.270  39.182 239.404  1.00  0.00    -0.303 NA
ATOM     17  H14 UNK     1       4.842  39.875 238.964  1.00  0.00     0.124 HD
ATOM     18  H15 UNK     1       3.722  39.610 240.123  1.00  0.00     0.124 HD
ENDBRANCH  13  16
ENDBRANCH   8  10
BRANCH   8  19
ATOM     19  C7  UNK     1       0.981  35.435 235.247  1.00  0.00     0.020 C 
ATOM     20  C9  UNK     1       0.545  34.481 236.332  1.00  0.00     0.006 C 
ENDBRANCH   8  19
TORSDOF 3
ENDMDL
