MODEL 1
REMARK VINA RESULT:      -6.7      0.000      0.000
REMARK  3 active torsions:
REMARK  status: ('A' for Active; 'I' for Inactive)
REMARK    1  A    between atoms: C3_4  and  C7_2 
REMARK    2  A    between atoms: C2_9  and  O3_10 
REMARK    3  A    between atoms: C8_11  and  O3_10 
ROOT
HETATM    1  C3  AIN  1536       1.609  44.761 228.817  1.00 20.00     0.074 A 
HETATM    2  C4  AIN  1536       2.861  44.470 229.347  1.00 20.00     0.021 A 
HETATM    3  C5  AIN  1536       3.488  43.271 229.036  1.00 20.00     0.001 A 
HETATM    4  C6  AIN  1536       2.881  42.345 228.194  1.00 20.00     0.003 A 
HETATM    5  C1  AIN  1536       1.626  42.590 227.637  1.00 20.00     0.038 A 
HETATM    6  C2  AIN  1536       0.945  43.768 227.930  1.00 20.00     0.096 A 
ENDROOT
BRANCH   6   7
HETATM    7  O3  AIN  1536      -0.273  44.059 227.356  1.00 20.00    -0.278 OA
BRANCH   7   8
HETATM    8  C8  AIN  1536      -1.395  43.216 226.963  1.00 20.00     0.260 C 
HETATM    9  C9  AIN  1536      -2.173  42.372 227.925  1.00 20.00     0.126 C 
HETATM   10  O4  AIN  1536      -1.732  43.232 225.795  1.00 20.00    -0.265 OA
ENDBRANCH   7   8
ENDBRANCH   6   7
BRANCH   1  11
HETATM   11  C7  AIN  1536       0.948  46.065 229.168  1.00 20.00     0.212 C 
HETATM   12  O1  AIN  1536       0.213  46.134 230.141  1.00 20.00    -0.644 OA
HETATM   13  O2  AIN  1536       1.143  47.065 228.498  1.00 20.00    -0.644 OA
ENDBRANCH   1  11
TORSDOF 3
ENDMDL
MODEL 2
REMARK VINA RESULT:      -6.3      2.067      4.115
REMARK  3 active torsions:
REMARK  status: ('A' for Active; 'I' for Inactive)
REMARK    1  A    between atoms: C3_4  and  C7_2 
REMARK    2  A    between atoms: C2_9  and  O3_10 
REMARK    3  A    between atoms: C8_11  and  O3_10 
ROOT
HETATM    1  C3  AIN  1536       0.807  44.748 228.441  1.00 20.00     0.074 A 
HETATM    2  C4  AIN  1536      -0.342  44.237 227.850  1.00 20.00     0.021 A 
HETATM    3  C5  AIN  1536      -0.355  42.940 227.355  1.00 20.00     0.001 A 
HETATM    4  C6  AIN  1536       0.775  42.133 227.441  1.00 20.00     0.003 A 
HETATM    5  C1  AIN  1536       1.953  42.599 228.024  1.00 20.00     0.038 A 
HETATM    6  C2  AIN  1536       2.025  43.897 228.520  1.00 20.00     0.096 A 
ENDROOT
BRANCH   6   7
HETATM    7  O3  AIN  1536       3.159  44.368 229.145  1.00 20.00    -0.278 OA
BRANCH   7   8
HETATM    8  C8  AIN  1536       3.770  44.051 230.431  1.00 20.00     0.260 C 
HETATM    9  C9  AIN  1536       5.206  43.662 230.590  1.00 20.00     0.126 C 
HETATM   10  O4  AIN  1536       3.075  44.144 231.424  1.00 20.00    -0.265 OA
ENDBRANCH   7   8
ENDBRANCH   6   7
BRANCH   1  11
HETATM   11  C7  AIN  1536       0.798  46.156 228.969  1.00 20.00     0.212 C 
HETATM   12  O1  AIN  1536       1.295  47.057 228.312  1.00 20.00    -0.644 OA
HETATM   13  O2  AIN  1536       0.289  46.415 230.046  1.00 20.00    -0.644 OA
ENDBRANCH   1  11
TORSDOF 3
ENDMDL
MODEL 3
REMARK VINA RESULT:      -5.5      2.219      4.161
REMARK  3 active torsions:
REMARK  status: ('A' for Active; 'I' for Inactive)
REMARK    1  A    between atoms: C3_4  and  C7_2 
REMARK    2  A    between atoms: C2_9  and  O3_10 
REMARK    3  A    between atoms: C8_11  and  O3_10 
ROOT
HETATM    1  C3  AIN  1536       1.302  42.395 228.669  1.00 20.00     0.074 A 
HETATM    2  C4  AIN  1536       0.674  41.158 228.579  1.00 20.00     0.021 A 
HETATM    3  C5  AIN  1536      -0.580  40.969 229.144  1.00 20.00     0.001 A 
HETATM    4  C6  AIN  1536      -1.227  42.007 229.807  1.00 20.00     0.003 A 
HETATM    5  C1  AIN  1536      -0.640  43.267 229.924  1.00 20.00     0.038 A 
HETATM    6  C2  AIN  1536       0.623  43.505 229.391  1.00 20.00     0.096 A 
ENDROOT
BRANCH   6   7
HETATM    7  O3  AIN  1536       1.207  44.751 229.449  1.00 20.00    -0.278 OA
BRANCH   7   8
HETATM    8  C8  AIN  1536       1.094  45.925 228.591  1.00 20.00     0.260 C 
HETATM    9  C9  AIN  1536       1.083  47.330 229.107  1.00 20.00     0.126 C 
HETATM   10  O4  AIN  1536       1.039  45.742 227.390  1.00 20.00    -0.265 OA
ENDBRANCH   7   8
ENDBRANCH   6   7
BRANCH   1  11
HETATM   11  C7  AIN  1536       2.660  42.576 228.050  1.00 20.00     0.212 C 
HETATM   12  O1  AIN  1536       2.760  43.009 226.912  1.00 20.00    -0.644 OA
HETATM   13  O2  AIN  1536       3.672  42.306 228.674  1.00 20.00    -0.644 OA
ENDBRANCH   1  11
TORSDOF 3
ENDMDL
MODEL 4
REMARK VINA RESULT:      -5.2      1.967      4.346
REMARK  3 active torsions:
REMARK  status: ('A' for Active; 'I' for Inactive)
REMARK    1  A    between atoms: C3_4  and  C7_2 
REMARK    2  A    between atoms: C2_9  and  O3_10 
REMARK    3  A    between atoms: C8_11  and  O3_10 
ROOT
HETATM    1  C3  AIN  1536      -0.223  43.448 227.739  1.00 20.00     0.074 A 
HETATM    2  C4  AIN  1536      -1.252  43.370 226.809  1.00 20.00     0.021 A 
HETATM    3  C5  AIN  1536      -2.407  42.658 227.103  1.00 20.00     0.001 A 
HETATM    4  C6  AIN  1536      -2.554  42.014 228.328  1.00 20.00     0.003 A 
HETATM    5  C1  AIN  1536      -1.551  42.063 229.295  1.00 20.00     0.038 A 
HETATM    6  C2  AIN  1536      -0.366  42.747 229.044  1.00 20.00     0.096 A 
ENDROOT
BRANCH   6   7
HETATM    7  O3  AIN  1536       0.622  42.854 229.998  1.00 20.00    -0.278 OA
BRANCH   7   8
HETATM    8  C8  AIN  1536       1.358  43.999 230.520  1.00 20.00     0.260 C 
HETATM    9  C9  AIN  1536       2.850  44.048 230.621  1.00 20.00     0.126 C 
HETATM   10  O4  AIN  1536       0.716  44.975 230.859  1.00 20.00    -0.265 OA
ENDBRANCH   7   8
ENDBRANCH   6   7
BRANCH   1  11
HETATM   11  C7  AIN  1536       1.019  44.224 227.398  1.00 20.00     0.212 C 
HETATM   12  O1  AIN  1536       2.064  43.634 227.170  1.00 20.00    -0.644 OA
HETATM   13  O2  AIN  1536       0.998  45.441 227.335  1.00 20.00    -0.644 OA
ENDBRANCH   1  11
TORSDOF 3
ENDMDL
MODEL 5
REMARK VINA RESULT:      -5.2      1.964      4.950
REMARK  3 active torsions:
REMARK  status: ('A' for Active; 'I' for Inactive)
REMARK    1  A    between atoms: C3_4  and  C7_2 
REMARK    2  A    between atoms: C2_9  and  O3_10 
REMARK    3  A    between atoms: C8_11  and  O3_10 
ROOT
HETATM    1  C3  AIN  1536      -1.832  42.100 228.239  1.00 20.00     0.074 A 
HETATM    2  C4  AIN  1536      -3.142  41.702 228.004  1.00 20.00     0.021 A 
HETATM    3  C5  AIN  1536      -3.792  42.090 226.839  1.00 20.00     0.001 A 
HETATM    4  C6  AIN  1536      -3.146  42.878 225.891  1.00 20.00     0.003 A 
HETATM    5  C1  AIN  1536      -1.831  43.303 226.080  1.00 20.00     0.038 A 
HETATM    6  C2  AIN  1536      -1.141  42.958 227.238  1.00 20.00     0.096 A 
ENDROOT
BRANCH   6   7
HETATM    7  O3  AIN  1536       0.174  43.322 227.430  1.00 20.00    -0.278 OA
BRANCH   7   8
HETATM    8  C8  AIN  1536       0.785  44.467 228.094  1.00 20.00     0.260 C 
HETATM    9  C9  AIN  1536       2.192  44.473 228.606  1.00 20.00     0.126 C 
HETATM   10  O4  AIN  1536       0.118  45.478 228.204  1.00 20.00    -0.265 OA
ENDBRANCH   7   8
ENDBRANCH   6   7
BRANCH   1  11
HETATM   11  C7  AIN  1536      -1.150  41.669 229.507  1.00 20.00     0.212 C 
HETATM   12  O1  AIN  1536      -0.836  40.500 229.665  1.00 20.00    -0.644 OA
HETATM   13  O2  AIN  1536      -0.893  42.477 230.384  1.00 20.00    -0.644 OA
ENDBRANCH   1  11
TORSDOF 3
ENDMDL
MODEL 6
REMARK VINA RESULT:      -5.1      3.050      4.626
REMARK  3 active torsions:
REMARK  status: ('A' for Active; 'I' for Inactive)
REMARK    1  A    between atoms: C3_4  and  C7_2 
REMARK    2  A    between atoms: C2_9  and  O3_10 
REMARK    3  A    between atoms: C8_11  and  O3_10 
ROOT
HETATM    1  C3  AIN  1536      -0.516  42.825 228.648  1.00 20.00     0.074 A 
HETATM    2  C4  AIN  1536      -0.709  43.462 227.429  1.00 20.00     0.021 A 
HETATM    3  C5  AIN  1536      -1.872  43.240 226.702  1.00 20.00     0.001 A 
HETATM    4  C6  AIN  1536      -2.858  42.383 227.179  1.00 20.00     0.003 A 
HETATM    5  C1  AIN  1536      -2.712  41.720 228.398  1.00 20.00     0.038 A 
HETATM    6  C2  AIN  1536      -1.559  41.893 229.157  1.00 20.00     0.096 A 
ENDROOT
BRANCH   6   7
HETATM    7  O3  AIN  1536      -1.408  41.291 230.387  1.00 20.00    -0.278 OA
BRANCH   7   8
HETATM    8  C8  AIN  1536      -1.389  39.891 230.794  1.00 20.00     0.260 C 
HETATM    9  C9  AIN  1536      -0.885  38.782 229.924  1.00 20.00     0.126 C 
HETATM   10  O4  AIN  1536      -1.774  39.625 231.917  1.00 20.00    -0.265 OA
ENDBRANCH   7   8
ENDBRANCH   6   7
BRANCH   1  11
HETATM   11  C7  AIN  1536       0.751  43.080 229.417  1.00 20.00     0.212 C 
HETATM   12  O1  AIN  1536       1.809  42.615 229.021  1.00 20.00    -0.644 OA
HETATM   13  O2  AIN  1536       0.741  43.756 230.432  1.00 20.00    -0.644 OA
ENDBRANCH   1  11
TORSDOF 3
ENDMDL
MODEL 7
REMARK VINA RESULT:      -5.0     11.756     12.731
REMARK  3 active torsions:
REMARK  status: ('A' for Active; 'I' for Inactive)
REMARK    1  A    between atoms: C3_4  and  C7_2 
REMARK    2  A    between atoms: C2_9  and  O3_10 
REMARK    3  A    between atoms: C8_11  and  O3_10 
ROOT
HETATM    1  C3  AIN  1536       3.036  37.975 238.542  1.00 20.00     0.074 A 
HETATM    2  C4  AIN  1536       2.274  39.131 238.664  1.00 20.00     0.021 A 
HETATM    3  C5  AIN  1536       1.473  39.553 237.612  1.00 20.00     0.001 A 
HETATM    4  C6  AIN  1536       1.418  38.832 236.423  1.00 20.00     0.003 A 
HETATM    5  C1  AIN  1536       2.163  37.665 236.251  1.00 20.00     0.038 A 
HETATM    6  C2  AIN  1536       2.996  37.208 237.267  1.00 20.00     0.096 A 
ENDROOT
BRANCH   6   7
HETATM    7  O3  AIN  1536       3.706  36.033 237.145  1.00 20.00    -0.278 OA
BRANCH   7   8
HETATM    8  C8  AIN  1536       3.331  34.639 237.346  1.00 20.00     0.260 C 
HETATM    9  C9  AIN  1536       2.581  33.829 236.335  1.00 20.00     0.126 C 
HETATM   10  O4  AIN  1536       3.681  34.104 238.380  1.00 20.00    -0.265 OA
ENDBRANCH   7   8
ENDBRANCH   6   7
BRANCH   1  11
HETATM   11  C7  AIN  1536       3.897  37.537 239.694  1.00 20.00     0.212 C 
HETATM   12  O1  AIN  1536       3.535  36.618 240.412  1.00 20.00    -0.644 OA
HETATM   13  O2  AIN  1536       4.964  38.083 239.919  1.00 20.00    -0.644 OA
ENDBRANCH   1  11
TORSDOF 3
ENDMDL
MODEL 8
REMARK VINA RESULT:      -4.9     11.197     12.028
REMARK  3 active torsions:
REMARK  status: ('A' for Active; 'I' for Inactive)
REMARK    1  A    between atoms: C3_4  and  C7_2 
REMARK    2  A    between atoms: C2_9  and  O3_10 
REMARK    3  A    between atoms: C8_11  and  O3_10 
ROOT
HETATM    1  C3  AIN  1536       2.368  38.667 238.243  1.00 20.00     0.074 A 
HETATM    2  C4  AIN  1536       3.498  39.306 238.737  1.00 20.00     0.021 A 
HETATM    3  C5  AIN  1536       4.253  38.714 239.740  1.00 20.00     0.001 A 
HETATM    4  C6  AIN  1536       3.895  37.476 240.265  1.00 20.00     0.003 A 
HETATM    5  C1  AIN  1536       2.770  36.793 239.803  1.00 20.00     0.038 A 
HETATM    6  C2  AIN  1536       1.969  37.351 238.813  1.00 20.00     0.096 A 
ENDROOT
BRANCH   6   7
HETATM    7  O3  AIN  1536       0.880  36.678 238.302  1.00 20.00    -0.278 OA
BRANCH   7   8
HETATM    8  C8  AIN  1536       0.733  35.771 237.171  1.00 20.00     0.260 C 
HETATM    9  C9  AIN  1536       1.865  35.377 236.274  1.00 20.00     0.126 C 
HETATM   10  O4  AIN  1536      -0.365  35.287 236.974  1.00 20.00    -0.265 OA
ENDBRANCH   7   8
ENDBRANCH   6   7
BRANCH   1  11
HETATM   11  C7  AIN  1536       1.564  39.328 237.157  1.00 20.00     0.212 C 
HETATM   12  O1  AIN  1536       1.791  39.067 235.986  1.00 20.00    -0.644 OA
HETATM   13  O2  AIN  1536       0.677  40.118 237.430  1.00 20.00    -0.644 OA
ENDBRANCH   1  11
TORSDOF 3
ENDMDL
MODEL 9
REMARK VINA RESULT:      -4.8     11.517     12.526
REMARK  3 active torsions:
REMARK  status: ('A' for Active; 'I' for Inactive)
REMARK    1  A    between atoms: C3_4  and  C7_2 
REMARK    2  A    between atoms: C2_9  and  O3_10 
REMARK    3  A    between atoms: C8_11  and  O3_10 
ROOT
HETATM    1  C3  AIN  1536       3.153  36.545 238.721  1.00 20.00     0.074 A 
HETATM    2  C4  AIN  1536       3.332  36.818 240.072  1.00 20.00     0.021 A 
HETATM    3  C5  AIN  1536       3.636  38.107 240.490  1.00 20.00     0.001 A 
HETATM    4  C6  AIN  1536       3.765  39.143 239.570  1.00 20.00     0.003 A 
HETATM    5  C1  AIN  1536       3.594  38.921 238.203  1.00 20.00     0.038 A 
HETATM    6  C2  AIN  1536       3.307  37.645 237.730  1.00 20.00     0.096 A 
ENDROOT
BRANCH   6   7
HETATM    7  O3  AIN  1536       3.085  37.405 236.391  1.00 20.00    -0.278 OA
BRANCH   7   8
HETATM    8  C8  AIN  1536       1.937  37.661 235.530  1.00 20.00     0.260 C 
HETATM    9  C9  AIN  1536       1.102  36.578 234.919  1.00 20.00     0.126 C 
HETATM   10  O4  AIN  1536       1.630  38.820 235.329  1.00 20.00    -0.265 OA
ENDBRANCH   7   8
ENDBRANCH   6   7
BRANCH   1  11
HETATM   11  C7  AIN  1536       2.826  35.142 238.292  1.00 20.00     0.212 C 
HETATM   12  O1  AIN  1536       3.699  34.288 238.284  1.00 20.00    -0.644 OA
HETATM   13  O2  AIN  1536       1.694  34.839 237.959  1.00 20.00    -0.644 OA
ENDBRANCH   1  11
TORSDOF 3
ENDMDL
