MODEL 1
REMARK VINA RESULT:      -6.5      0.000      0.000
REMARK  7 active torsions:
REMARK  status: ('A' for Active; 'I' for Inactive)
REMARK    1  A    between atoms: C2_6  and  C21_2 
REMARK       I    between atoms: C21_2  and  N2_3 
REMARK    2  A    between atoms: C3_9  and  O2_10 
REMARK    3  A    between atoms: C4_12  and  N1_13 
REMARK    4  A    between atoms: C18_17  and  O7_18 
REMARK    5  A    between atoms: C17_20  and  O6_21 
REMARK    6  A    between atoms: C13_31  and  O4_32 
REMARK    7  A    between atoms: C10_36  and  N7_37 
ROOT
HETATM    1  C2  MIY  5181      -3.848  35.907 231.613  1.00 20.00     0.116 C 
HETATM    2  C1  MIY  5181      -3.015  36.742 232.509  1.00 20.00     0.209 C 
HETATM    3  O1  MIY  5181      -3.545  37.314 233.441  1.00 20.00    -0.288 OA
HETATM    4  C3  MIY  5181      -3.227  35.181 230.634  1.00 20.00     0.108 C 
HETATM    5  C4  MIY  5181      -1.679  35.032 230.487  1.00 20.00     0.049 C 
HETATM    6  C5  MIY  5181      -0.841  35.668 231.647  1.00 20.00     0.088 C 
HETATM    7  C18 MIY  5181      -1.505  36.933 232.218  1.00 20.00     0.180 C 
HETATM    8  C17 MIY  5181      -0.572  37.464 233.327  1.00 20.00     0.097 C 
HETATM    9  C16 MIY  5181       0.412  36.786 233.965  1.00 20.00     0.030 C 
HETATM   10  C7  MIY  5181       0.762  35.360 233.637  1.00 20.00     0.030 C 
HETATM   11  C6  MIY  5181      -0.337  34.716 232.757  1.00 20.00     0.024 C 
HETATM   12  C15 MIY  5181       1.145  37.489 235.040  1.00 20.00     0.194 C 
HETATM   13  O5  MIY  5181       1.050  38.701 235.284  1.00 20.00    -0.287 OA
HETATM   14  C14 MIY  5181       1.967  36.698 235.984  1.00 20.00     0.056 A 
HETATM   15  C9  MIY  5181       1.858  35.310 235.990  1.00 20.00    -0.019 A 
HETATM   16  C8  MIY  5181       0.924  34.614 234.983  1.00 20.00     0.051 C 
HETATM   17  C13 MIY  5181       2.779  37.408 236.862  1.00 20.00     0.080 A 
HETATM   18  C12 MIY  5181       3.542  36.710 237.796  1.00 20.00     0.039 A 
HETATM   19  C11 MIY  5181       3.450  35.319 237.825  1.00 20.00     0.027 A 
HETATM   20  C10 MIY  5181       2.622  34.615 236.936  1.00 20.00     0.017 A 
ENDROOT
BRANCH   1  21
HETATM   21  C21 MIY  5181      -5.330  35.869 231.805  1.00 20.00     0.256 C 
HETATM   22  N2  MIY  5181      -5.736  35.518 233.046  1.00 20.00    -0.366 N 
ATOM     23  H22 MIY  5181      -5.088  35.279 233.798  1.00  0.00     0.159 HD
ATOM     24  H21 MIY  5181      -6.747  35.493 233.177  1.00  0.00     0.159 HD
HETATM   25  O8  MIY  5181      -6.118  36.160 230.892  1.00 20.00    -0.268 OA
ENDBRANCH   1  21
BRANCH   4  26
HETATM   26  O2  MIY  5181      -4.000  34.535 229.743  1.00 20.00    -0.358 OA
ATOM     27  H2  MIY  5181      -4.450  33.750 230.032  1.00  0.00     0.218 HD
ENDBRANCH   4  26
BRANCH   7  28
HETATM   28  O7  MIY  5181      -1.428  37.958 231.217  1.00 20.00    -0.374 OA
ATOM     29  H7  MIY  5181      -0.875  38.637 231.584  1.00  0.00     0.211 HD
ENDBRANCH   7  28
BRANCH   5  30
HETATM   30  N1  MIY  5181      -1.158  35.288 229.041  1.00 20.00    -0.390 N 
HETATM   31  C19 MIY  5181      -1.742  36.405 228.252  1.00 20.00     0.149 C 
HETATM   32  C20 MIY  5181       0.328  35.281 228.822  1.00 20.00     0.149 C 
ENDBRANCH   5  30
BRANCH   8  33
HETATM   33  O6  MIY  5181      -0.680  38.766 233.637  1.00 20.00    -0.361 OA
ATOM     34  H6  MIY  5181      -1.454  39.207 233.306  1.00  0.00     0.217 HD
ENDBRANCH   8  33
BRANCH  17  35
HETATM   35  O4  MIY  5181       2.821  38.785 236.779  1.00 20.00    -0.360 OA
ATOM     36  H4  MIY  5181       3.527  39.235 236.330  1.00  0.00     0.217 HD
ENDBRANCH  17  35
BRANCH  20  37
HETATM   37  N7  MIY  5181       2.540  33.232 237.059  1.00 20.00    -0.291 NA
HETATM   38  C71 MIY  5181       3.445  32.552 236.108  1.00 20.00     0.116 C 
HETATM   39  CN7 MIY  5181       3.089  32.986 238.398  1.00 20.00     0.116 C 
ENDBRANCH  20  37
TORSDOF 7
ENDMDL
MODEL 2
REMARK VINA RESULT:      -6.3      2.670      4.405
REMARK  7 active torsions:
REMARK  status: ('A' for Active; 'I' for Inactive)
REMARK    1  A    between atoms: C2_6  and  C21_2 
REMARK       I    between atoms: C21_2  and  N2_3 
REMARK    2  A    between atoms: C3_9  and  O2_10 
REMARK    3  A    between atoms: C4_12  and  N1_13 
REMARK    4  A    between atoms: C18_17  and  O7_18 
REMARK    5  A    between atoms: C17_20  and  O6_21 
REMARK    6  A    between atoms: C13_31  and  O4_32 
REMARK    7  A    between atoms: C10_36  and  N7_37 
ROOT
HETATM    1  C2  MIY  5181      -2.538  38.503 231.510  1.00 20.00     0.116 C 
HETATM    2  C1  MIY  5181      -1.666  37.315 231.661  1.00 20.00     0.209 C 
HETATM    3  O1  MIY  5181      -0.699  37.199 230.934  1.00 20.00    -0.288 OA
HETATM    4  C3  MIY  5181      -3.559  38.680 232.402  1.00 20.00     0.108 C 
HETATM    5  C4  MIY  5181      -3.780  37.810 233.681  1.00 20.00     0.049 C 
HETATM    6  C5  MIY  5181      -2.647  36.769 233.976  1.00 20.00     0.088 C 
HETATM    7  C18 MIY  5181      -2.022  36.210 232.687  1.00 20.00     0.180 C 
HETATM    8  C17 MIY  5181      -0.947  35.191 233.119  1.00 20.00     0.097 C 
HETATM    9  C16 MIY  5181      -0.368  35.077 234.338  1.00 20.00     0.030 C 
HETATM   10  C7  MIY  5181      -0.740  35.957 235.501  1.00 20.00     0.030 C 
HETATM   11  C6  MIY  5181      -1.581  37.165 235.024  1.00 20.00     0.024 C 
HETATM   12  C15 MIY  5181       0.686  34.052 234.506  1.00 20.00     0.194 C 
HETATM   13  O5  MIY  5181       0.957  33.175 233.672  1.00 20.00    -0.287 OA
HETATM   14  C14 MIY  5181       1.576  34.124 235.687  1.00 20.00     0.056 A 
HETATM   15  C9  MIY  5181       1.559  35.262 236.488  1.00 20.00    -0.019 A 
HETATM   16  C8  MIY  5181       0.583  36.409 236.165  1.00 20.00     0.051 C 
HETATM   17  C13 MIY  5181       2.429  33.047 235.902  1.00 20.00     0.080 A 
HETATM   18  C12 MIY  5181       3.313  33.085 236.978  1.00 20.00     0.039 A 
HETATM   19  C11 MIY  5181       3.319  34.215 237.795  1.00 20.00     0.027 A 
HETATM   20  C10 MIY  5181       2.456  35.298 237.564  1.00 20.00     0.017 A 
ENDROOT
BRANCH   1  21
HETATM   21  C21 MIY  5181      -2.279  39.473 230.403  1.00 20.00     0.256 C 
HETATM   22  N2  MIY  5181      -1.681  40.625 230.782  1.00 20.00    -0.366 N 
ATOM     23  H22 MIY  5181      -1.436  40.832 231.750  1.00  0.00     0.159 HD
ATOM     24  H21 MIY  5181      -1.504  41.287 230.027  1.00  0.00     0.159 HD
HETATM   25  O8  MIY  5181      -2.578  39.221 229.225  1.00 20.00    -0.268 OA
ENDBRANCH   1  21
BRANCH   4  26
HETATM   26  O2  MIY  5181      -4.426  39.683 232.177  1.00 20.00    -0.358 OA
ATOM     27  H2  MIY  5181      -5.192  39.742 232.735  1.00  0.00     0.218 HD
ENDBRANCH   4  26
BRANCH   7  28
HETATM   28  O7  MIY  5181      -3.006  35.385 232.045  1.00 20.00    -0.374 OA
ATOM     29  H7  MIY  5181      -2.519  34.787 231.490  1.00  0.00     0.211 HD
ENDBRANCH   7  28
BRANCH   5  30
HETATM   30  N1  MIY  5181      -5.243  37.301 233.850  1.00 20.00    -0.390 N 
HETATM   31  C19 MIY  5181      -5.474  35.874 234.197  1.00 20.00     0.149 C 
HETATM   32  C20 MIY  5181      -6.187  38.143 234.659  1.00 20.00     0.149 C 
ENDBRANCH   5  30
BRANCH   8  33
HETATM   33  O6  MIY  5181      -0.607  34.251 232.221  1.00 20.00    -0.361 OA
ATOM     34  H6  MIY  5181      -1.318  33.706 231.904  1.00  0.00     0.217 HD
ENDBRANCH   8  33
BRANCH  17  35
HETATM   35  O4  MIY  5181       2.371  31.961 235.052  1.00 20.00    -0.360 OA
ATOM     36  H4  MIY  5181       2.049  32.043 234.162  1.00  0.00     0.217 HD
ENDBRANCH  17  35
BRANCH  20  37
HETATM   37  N7  MIY  5181       2.554  36.414 238.388  1.00 20.00    -0.291 NA
HETATM   38  C71 MIY  5181       2.829  36.028 239.788  1.00 20.00     0.116 C 
HETATM   39  CN7 MIY  5181       3.768  37.079 237.897  1.00 20.00     0.116 C 
ENDBRANCH  20  37
TORSDOF 7
ENDMDL
MODEL 3
REMARK VINA RESULT:      -6.3      2.343      7.731
REMARK  7 active torsions:
REMARK  status: ('A' for Active; 'I' for Inactive)
REMARK    1  A    between atoms: C2_6  and  C21_2 
REMARK       I    between atoms: C21_2  and  N2_3 
REMARK    2  A    between atoms: C3_9  and  O2_10 
REMARK    3  A    between atoms: C4_12  and  N1_13 
REMARK    4  A    between atoms: C18_17  and  O7_18 
REMARK    5  A    between atoms: C17_20  and  O6_21 
REMARK    6  A    between atoms: C13_31  and  O4_32 
REMARK    7  A    between atoms: C10_36  and  N7_37 
ROOT
HETATM    1  C2  MIY  5181       2.172  36.973 236.626  1.00 20.00     0.116 C 
HETATM    2  C1  MIY  5181       1.293  37.645 235.640  1.00 20.00     0.209 C 
HETATM    3  O1  MIY  5181       1.644  38.708 235.168  1.00 20.00    -0.288 OA
HETATM    4  C3  MIY  5181       1.821  35.728 237.069  1.00 20.00     0.108 C 
HETATM    5  C4  MIY  5181       0.645  34.879 236.490  1.00 20.00     0.049 C 
HETATM    6  C5  MIY  5181      -0.055  35.492 235.231  1.00 20.00     0.088 C 
HETATM    7  C18 MIY  5181      -0.080  37.030 235.271  1.00 20.00     0.180 C 
HETATM    8  C17 MIY  5181      -0.811  37.497 233.994  1.00 20.00     0.097 C 
HETATM    9  C16 MIY  5181      -1.039  36.777 232.870  1.00 20.00     0.030 C 
HETATM   10  C7  MIY  5181      -0.612  35.342 232.723  1.00 20.00     0.030 C 
HETATM   11  C6  MIY  5181       0.373  34.947 233.849  1.00 20.00     0.024 C 
HETATM   12  C15 MIY  5181      -1.717  37.457 231.745  1.00 20.00     0.194 C 
HETATM   13  O5  MIY  5181      -2.249  38.575 231.812  1.00 20.00    -0.287 OA
HETATM   14  C14 MIY  5181      -1.672  36.838 230.400  1.00 20.00     0.056 A 
HETATM   15  C9  MIY  5181      -0.816  35.765 230.169  1.00 20.00    -0.019 A 
HETATM   16  C8  MIY  5181       0.036  35.205 231.324  1.00 20.00     0.051 C 
HETATM   17  C13 MIY  5181      -2.469  37.410 229.415  1.00 20.00     0.080 A 
HETATM   18  C12 MIY  5181      -2.432  36.888 228.124  1.00 20.00     0.039 A 
HETATM   19  C11 MIY  5181      -1.581  35.814 227.863  1.00 20.00     0.027 A 
HETATM   20  C10 MIY  5181      -0.778  35.249 228.867  1.00 20.00     0.017 A 
ENDROOT
BRANCH   1  21
HETATM   21  C21 MIY  5181       3.411  37.662 237.099  1.00 20.00     0.256 C 
HETATM   22  N2  MIY  5181       3.201  38.806 237.787  1.00 20.00    -0.366 N 
ATOM     23  H22 MIY  5181       2.271  39.189 237.962  1.00  0.00     0.159 HD
ATOM     24  H21 MIY  5181       4.046  39.276 238.110  1.00  0.00     0.159 HD
HETATM   25  O8  MIY  5181       4.543  37.197 236.887  1.00 20.00    -0.268 OA
ENDBRANCH   1  21
BRANCH   4  26
HETATM   26  O2  MIY  5181       2.549  35.186 238.061  1.00 20.00    -0.358 OA
ATOM     27  H2  MIY  5181       3.312  34.672 237.824  1.00  0.00     0.218 HD
ENDBRANCH   4  26
BRANCH   7  28
HETATM   28  O7  MIY  5181      -0.979  37.426 236.318  1.00 20.00    -0.374 OA
ATOM     29  H7  MIY  5181      -1.822  37.553 235.900  1.00  0.00     0.211 HD
ENDBRANCH   7  28
BRANCH   5  30
HETATM   30  N1  MIY  5181      -0.296  34.284 237.580  1.00 20.00    -0.390 N 
HETATM   31  C19 MIY  5181      -0.677  35.129 238.742  1.00 20.00     0.149 C 
HETATM   32  C20 MIY  5181      -1.515  33.537 237.119  1.00 20.00     0.149 C 
ENDBRANCH   5  30
BRANCH   8  33
HETATM   33  O6  MIY  5181      -1.365  38.721 234.027  1.00 20.00    -0.361 OA
ATOM     34  H6  MIY  5181      -1.155  39.289 233.295  1.00  0.00     0.217 HD
ENDBRANCH   8  33
BRANCH  17  35
HETATM   35  O4  MIY  5181      -3.288  38.472 229.741  1.00 20.00    -0.360 OA
ATOM     36  H4  MIY  5181      -4.039  38.364 230.313  1.00  0.00     0.217 HD
ENDBRANCH  17  35
BRANCH  20  37
HETATM   37  N7  MIY  5181       0.086  34.215 228.523  1.00 20.00    -0.291 NA
HETATM   38  C71 MIY  5181      -0.588  32.902 228.596  1.00 20.00     0.116 C 
HETATM   39  CN7 MIY  5181       0.349  34.466 227.100  1.00 20.00     0.116 C 
ENDBRANCH  20  37
TORSDOF 7
ENDMDL
MODEL 4
REMARK VINA RESULT:      -6.3      2.300      8.108
REMARK  7 active torsions:
REMARK  status: ('A' for Active; 'I' for Inactive)
REMARK    1  A    between atoms: C2_6  and  C21_2 
REMARK       I    between atoms: C21_2  and  N2_3 
REMARK    2  A    between atoms: C3_9  and  O2_10 
REMARK    3  A    between atoms: C4_12  and  N1_13 
REMARK    4  A    between atoms: C18_17  and  O7_18 
REMARK    5  A    between atoms: C17_20  and  O6_21 
REMARK    6  A    between atoms: C13_31  and  O4_32 
REMARK    7  A    between atoms: C10_36  and  N7_37 
ROOT
HETATM    1  C2  MIY  5181       2.165  37.578 238.200  1.00 20.00     0.116 C 
HETATM    2  C1  MIY  5181       0.747  37.606 237.774  1.00 20.00     0.209 C 
HETATM    3  O1  MIY  5181       0.083  38.599 238.001  1.00 20.00    -0.288 OA
HETATM    4  C3  MIY  5181       2.932  36.504 237.844  1.00 20.00     0.108 C 
HETATM    5  C4  MIY  5181       2.473  35.368 236.874  1.00 20.00     0.049 C 
HETATM    6  C5  MIY  5181       1.083  35.604 236.193  1.00 20.00     0.088 C 
HETATM    7  C18 MIY  5181       0.106  36.361 237.109  1.00 20.00     0.180 C 
HETATM    8  C17 MIY  5181      -1.217  36.505 236.329  1.00 20.00     0.097 C 
HETATM    9  C16 MIY  5181      -1.400  36.371 234.993  1.00 20.00     0.030 C 
HETATM   10  C7  MIY  5181      -0.282  36.018 234.051  1.00 20.00     0.030 C 
HETATM   11  C6  MIY  5181       1.090  36.163 234.751  1.00 20.00     0.024 C 
HETATM   12  C15 MIY  5181      -2.759  36.610 234.459  1.00 20.00     0.194 C 
HETATM   13  O5  MIY  5181      -3.777  36.748 235.153  1.00 20.00    -0.287 OA
HETATM   14  C14 MIY  5181      -2.931  36.820 233.003  1.00 20.00     0.056 A 
HETATM   15  C9  MIY  5181      -1.809  37.016 232.203  1.00 20.00    -0.019 A 
HETATM   16  C8  MIY  5181      -0.403  36.963 232.831  1.00 20.00     0.051 C 
HETATM   17  C13 MIY  5181      -4.234  36.859 232.520  1.00 20.00     0.080 A 
HETATM   18  C12 MIY  5181      -4.449  37.094 231.164  1.00 20.00     0.039 A 
HETATM   19  C11 MIY  5181      -3.343  37.296 230.339  1.00 20.00     0.027 A 
HETATM   20  C10 MIY  5181      -2.032  37.259 230.841  1.00 20.00     0.017 A 
ENDROOT
BRANCH   1  21
HETATM   21  C21 MIY  5181       2.721  38.719 238.991  1.00 20.00     0.256 C 
HETATM   22  N2  MIY  5181       2.301  38.780 240.275  1.00 20.00    -0.366 N 
ATOM     23  H22 MIY  5181       1.642  38.113 240.678  1.00  0.00     0.159 HD
ATOM     24  H21 MIY  5181       2.680  39.558 240.814  1.00  0.00     0.159 HD
HETATM   25  O8  MIY  5181       3.521  39.530 238.500  1.00 20.00    -0.268 OA
ENDBRANCH   1  21
BRANCH   4  26
HETATM   26  O2  MIY  5181       4.176  36.423 238.349  1.00 20.00    -0.358 OA
ATOM     27  H2  MIY  5181       4.900  36.678 237.790  1.00  0.00     0.218 HD
ENDBRANCH   4  26
BRANCH   7  28
HETATM   28  O7  MIY  5181      -0.251  35.484 238.188  1.00 20.00    -0.374 OA
ATOM     29  H7  MIY  5181      -0.244  36.022 238.970  1.00  0.00     0.211 HD
ENDBRANCH   7  28
BRANCH   5  30
HETATM   30  N1  MIY  5181       2.738  33.932 237.418  1.00 20.00    -0.390 N 
HETATM   31  C19 MIY  5181       2.508  33.654 238.861  1.00 20.00     0.149 C 
HETATM   32  C20 MIY  5181       2.206  32.775 236.623  1.00 20.00     0.149 C 
ENDBRANCH   5  30
BRANCH   8  33
HETATM   33  O6  MIY  5181      -2.331  36.693 237.055  1.00 20.00    -0.361 OA
ATOM     34  H6  MIY  5181      -2.335  37.461 237.615  1.00  0.00     0.217 HD
ENDBRANCH   8  33
BRANCH  17  35
HETATM   35  O4  MIY  5181      -5.283  36.652 233.393  1.00 20.00    -0.360 OA
ATOM     36  H4  MIY  5181      -5.860  37.360 233.654  1.00  0.00     0.217 HD
ENDBRANCH  17  35
BRANCH  20  37
HETATM   37  N7  MIY  5181      -0.980  37.523 229.971  1.00 20.00    -0.291 NA
HETATM   38  C71 MIY  5181      -1.207  36.905 228.647  1.00 20.00     0.116 C 
HETATM   39  CN7 MIY  5181      -1.074  38.975 229.770  1.00 20.00     0.116 C 
ENDBRANCH  20  37
TORSDOF 7
ENDMDL
MODEL 5
REMARK VINA RESULT:      -6.0      2.468      4.263
REMARK  7 active torsions:
REMARK  status: ('A' for Active; 'I' for Inactive)
REMARK    1  A    between atoms: C2_6  and  C21_2 
REMARK       I    between atoms: C21_2  and  N2_3 
REMARK    2  A    between atoms: C3_9  and  O2_10 
REMARK    3  A    between atoms: C4_12  and  N1_13 
REMARK    4  A    between atoms: C18_17  and  O7_18 
REMARK    5  A    between atoms: C17_20  and  O6_21 
REMARK    6  A    between atoms: C13_31  and  O4_32 
REMARK    7  A    between atoms: C10_36  and  N7_37 
ROOT
HETATM    1  C2  MIY  5181      -1.062  36.417 229.696  1.00 20.00     0.116 C 
HETATM    2  C1  MIY  5181      -0.393  35.544 230.688  1.00 20.00     0.209 C 
HETATM    3  O1  MIY  5181       0.636  34.978 230.375  1.00 20.00    -0.288 OA
HETATM    4  C3  MIY  5181      -2.157  37.134 230.092  1.00 20.00     0.108 C 
HETATM    5  C4  MIY  5181      -2.667  37.235 231.565  1.00 20.00     0.049 C 
HETATM    6  C5  MIY  5181      -1.741  36.558 232.632  1.00 20.00     0.088 C 
HETATM    7  C18 MIY  5181      -1.035  35.308 232.079  1.00 20.00     0.180 C 
HETATM    8  C17 MIY  5181      -0.180  34.734 233.229  1.00 20.00     0.097 C 
HETATM    9  C16 MIY  5181       0.209  35.371 234.359  1.00 20.00     0.030 C 
HETATM   10  C7  MIY  5181      -0.187  36.789 234.670  1.00 20.00     0.030 C 
HETATM   11  C6  MIY  5181      -0.779  37.479 233.417  1.00 20.00     0.024 C 
HETATM   12  C15 MIY  5181       1.077  34.631 235.301  1.00 20.00     0.194 C 
HETATM   13  O5  MIY  5181       1.331  33.420 235.225  1.00 20.00    -0.287 OA
HETATM   14  C14 MIY  5181       1.802  35.383 236.350  1.00 20.00     0.056 A 
HETATM   15  C9  MIY  5181       1.839  36.774 236.293  1.00 20.00    -0.019 A 
HETATM   16  C8  MIY  5181       1.085  37.513 235.172  1.00 20.00     0.051 C 
HETATM   17  C13 MIY  5181       2.459  34.637 237.322  1.00 20.00     0.080 A 
HETATM   18  C12 MIY  5181       3.189  35.298 238.308  1.00 20.00     0.039 A 
HETATM   19  C11 MIY  5181       3.245  36.691 238.274  1.00 20.00     0.027 A 
HETATM   20  C10 MIY  5181       2.580  37.433 237.284  1.00 20.00     0.017 A 
ENDROOT
BRANCH   1  21
HETATM   21  C21 MIY  5181      -0.524  36.500 228.304  1.00 20.00     0.256 C 
HETATM   22  N2  MIY  5181      -1.270  35.874 227.366  1.00 20.00    -0.366 N 
ATOM     23  H22 MIY  5181      -2.129  35.367 227.583  1.00  0.00     0.159 HD
ATOM     24  H21 MIY  5181      -0.903  35.931 226.416  1.00  0.00     0.159 HD
HETATM   25  O8  MIY  5181       0.520  37.116 228.039  1.00 20.00    -0.268 OA
ENDBRANCH   1  21
BRANCH   4  26
HETATM   26  O2  MIY  5181      -2.837  37.815 229.153  1.00 20.00    -0.358 OA
ATOM     27  H2  MIY  5181      -2.616  38.730 229.019  1.00  0.00     0.218 HD
ENDBRANCH   4  26
BRANCH   7  28
HETATM   28  O7  MIY  5181      -2.030  34.293 231.882  1.00 20.00    -0.374 OA
ATOM     29  H7  MIY  5181      -2.700  34.459 232.534  1.00  0.00     0.211 HD
ENDBRANCH   7  28
BRANCH   5  30
HETATM   30  N1  MIY  5181      -4.196  36.979 231.720  1.00 20.00    -0.390 N 
HETATM   31  C19 MIY  5181      -4.820  35.860 230.966  1.00 20.00     0.149 C 
HETATM   32  C20 MIY  5181      -4.770  36.992 233.108  1.00 20.00     0.149 C 
ENDBRANCH   5  30
BRANCH   8  33
HETATM   33  O6  MIY  5181       0.140  33.432 233.153  1.00 20.00    -0.361 OA
ATOM     34  H6  MIY  5181       0.531  33.149 232.334  1.00  0.00     0.217 HD
ENDBRANCH   8  33
BRANCH  17  35
HETATM   35  O4  MIY  5181       2.363  33.261 237.295  1.00 20.00    -0.360 OA
ATOM     36  H4  MIY  5181       2.340  32.748 238.095  1.00  0.00     0.217 HD
ENDBRANCH  17  35
BRANCH  20  37
HETATM   37  N7  MIY  5181       2.725  38.816 237.280  1.00 20.00    -0.291 NA
HETATM   38  C71 MIY  5181       1.467  39.490 237.666  1.00 20.00     0.116 C 
HETATM   39  CN7 MIY  5181       3.673  39.051 238.377  1.00 20.00     0.116 C 
ENDBRANCH  20  37
TORSDOF 7
ENDMDL
MODEL 6
REMARK VINA RESULT:      -6.0      1.609      2.090
REMARK  7 active torsions:
REMARK  status: ('A' for Active; 'I' for Inactive)
REMARK    1  A    between atoms: C2_6  and  C21_2 
REMARK       I    between atoms: C21_2  and  N2_3 
REMARK    2  A    between atoms: C3_9  and  O2_10 
REMARK    3  A    between atoms: C4_12  and  N1_13 
REMARK    4  A    between atoms: C18_17  and  O7_18 
REMARK    5  A    between atoms: C17_20  and  O6_21 
REMARK    6  A    between atoms: C13_31  and  O4_32 
REMARK    7  A    between atoms: C10_36  and  N7_37 
ROOT
HETATM    1  C2  MIY  5181      -2.828  36.031 232.508  1.00 20.00     0.116 C 
HETATM    2  C1  MIY  5181      -1.966  36.935 233.305  1.00 20.00     0.209 C 
HETATM    3  O1  MIY  5181      -2.481  37.851 233.916  1.00 20.00    -0.288 OA
HETATM    4  C3  MIY  5181      -2.255  34.941 231.914  1.00 20.00     0.108 C 
HETATM    5  C4  MIY  5181      -0.782  34.476 232.145  1.00 20.00     0.049 C 
HETATM    6  C5  MIY  5181      -0.002  35.274 233.244  1.00 20.00     0.088 C 
HETATM    7  C18 MIY  5181      -0.428  36.751 233.302  1.00 20.00     0.180 C 
HETATM    8  C17 MIY  5181       0.426  37.418 234.401  1.00 20.00     0.097 C 
HETATM    9  C16 MIY  5181       1.115  36.801 235.391  1.00 20.00     0.030 C 
HETATM   10  C7  MIY  5181       1.164  35.305 235.538  1.00 20.00     0.030 C 
HETATM   11  C6  MIY  5181       0.091  34.633 234.649  1.00 20.00     0.024 C 
HETATM   12  C15 MIY  5181       1.822  37.656 236.370  1.00 20.00     0.194 C 
HETATM   13  O5  MIY  5181       1.980  38.880 236.256  1.00 20.00    -0.287 OA
HETATM   14  C14 MIY  5181       2.283  37.057 237.644  1.00 20.00     0.056 A 
HETATM   15  C9  MIY  5181       1.851  35.781 237.996  1.00 20.00    -0.019 A 
HETATM   16  C8  MIY  5181       0.942  34.990 237.037  1.00 20.00     0.051 C 
HETATM   17  C13 MIY  5181       3.098  37.842 238.453  1.00 20.00     0.080 A 
HETATM   18  C12 MIY  5181       3.525  37.338 239.679  1.00 20.00     0.039 A 
HETATM   19  C11 MIY  5181       3.105  36.063 240.058  1.00 20.00     0.027 A 
HETATM   20  C10 MIY  5181       2.279  35.283 239.234  1.00 20.00     0.017 A 
ENDROOT
BRANCH   1  21
HETATM   21  C21 MIY  5181      -4.289  36.323 232.383  1.00 20.00     0.256 C 
HETATM   22  N2  MIY  5181      -4.983  36.267 233.542  1.00 20.00    -0.366 N 
ATOM     23  H22 MIY  5181      -4.555  36.029 234.437  1.00  0.00     0.159 HD
ATOM     24  H21 MIY  5181      -5.979  36.467 233.457  1.00  0.00     0.159 HD
HETATM   25  O8  MIY  5181      -4.810  36.612 231.295  1.00 20.00    -0.268 OA
ENDBRANCH   1  21
BRANCH   4  26
HETATM   26  O2  MIY  5181      -3.015  34.204 231.084  1.00 20.00    -0.358 OA
ATOM     27  H2  MIY  5181      -2.584  33.752 230.369  1.00  0.00     0.218 HD
ENDBRANCH   4  26
BRANCH   7  28
HETATM   28  O7  MIY  5181       0.039  37.388 232.104  1.00 20.00    -0.374 OA
ATOM     29  H7  MIY  5181      -0.086  36.753 231.409  1.00  0.00     0.211 HD
ENDBRANCH   7  28
BRANCH   5  30
HETATM   30  N1  MIY  5181      -0.003  34.178 230.829  1.00 20.00    -0.390 N 
HETATM   31  C19 MIY  5181      -0.086  32.818 230.234  1.00 20.00     0.149 C 
HETATM   32  C20 MIY  5181      -0.095  35.186 229.719  1.00 20.00     0.149 C 
ENDBRANCH   5  30
BRANCH   8  33
HETATM   33  O6  MIY  5181       0.582  38.749 234.322  1.00 20.00    -0.361 OA
ATOM     34  H6  MIY  5181       1.435  39.049 234.027  1.00  0.00     0.217 HD
ENDBRANCH   8  33
BRANCH  17  35
HETATM   35  O4  MIY  5181       3.474  39.095 238.016  1.00 20.00    -0.360 OA
ATOM     36  H4  MIY  5181       3.968  39.215 237.212  1.00  0.00     0.217 HD
ENDBRANCH  17  35
BRANCH  20  37
HETATM   37  N7  MIY  5181       1.856  34.043 239.700  1.00 20.00    -0.291 NA
HETATM   38  C71 MIY  5181       2.972  33.284 240.302  1.00 20.00     0.116 C 
HETATM   39  CN7 MIY  5181       0.954  34.396 240.804  1.00 20.00     0.116 C 
ENDBRANCH  20  37
TORSDOF 7
ENDMDL
MODEL 7
REMARK VINA RESULT:      -5.9      4.296      7.930
REMARK  7 active torsions:
REMARK  status: ('A' for Active; 'I' for Inactive)
REMARK    1  A    between atoms: C2_6  and  C21_2 
REMARK       I    between atoms: C21_2  and  N2_3 
REMARK    2  A    between atoms: C3_9  and  O2_10 
REMARK    3  A    between atoms: C4_12  and  N1_13 
REMARK    4  A    between atoms: C18_17  and  O7_18 
REMARK    5  A    between atoms: C17_20  and  O6_21 
REMARK    6  A    between atoms: C13_31  and  O4_32 
REMARK    7  A    between atoms: C10_36  and  N7_37 
ROOT
HETATM    1  C2  MIY  5181      -2.873  36.429 233.803  1.00 20.00     0.116 C 
HETATM    2  C1  MIY  5181      -3.530  37.278 232.782  1.00 20.00     0.209 C 
HETATM    3  O1  MIY  5181      -4.416  38.035 233.127  1.00 20.00    -0.288 OA
HETATM    4  C3  MIY  5181      -1.806  35.662 233.426  1.00 20.00     0.108 C 
HETATM    5  C4  MIY  5181      -1.113  35.733 232.028  1.00 20.00     0.049 C 
HETATM    6  C5  MIY  5181      -1.636  36.873 231.088  1.00 20.00     0.088 C 
HETATM    7  C18 MIY  5181      -3.136  37.149 231.289  1.00 20.00     0.180 C 
HETATM    8  C17 MIY  5181      -3.519  38.267 230.297  1.00 20.00     0.097 C 
HETATM    9  C16 MIY  5181      -2.682  39.121 229.660  1.00 20.00     0.030 C 
HETATM   10  C7  MIY  5181      -1.188  39.068 229.824  1.00 20.00     0.030 C 
HETATM   11  C6  MIY  5181      -0.801  38.173 231.025  1.00 20.00     0.024 C 
HETATM   12  C15 MIY  5181      -3.286  40.153 228.790  1.00 20.00     0.194 C 
HETATM   13  O5  MIY  5181      -4.481  40.188 228.459  1.00 20.00    -0.287 OA
HETATM   14  C14 MIY  5181      -2.460  41.305 228.363  1.00 20.00     0.056 A 
HETATM   15  C9  MIY  5181      -1.220  41.517 228.960  1.00 20.00    -0.019 A 
HETATM   16  C8  MIY  5181      -0.704  40.525 230.020  1.00 20.00     0.051 C 
HETATM   17  C13 MIY  5181      -3.004  42.153 227.405  1.00 20.00     0.080 A 
HETATM   18  C12 MIY  5181      -2.281  43.273 226.999  1.00 20.00     0.039 A 
HETATM   19  C11 MIY  5181      -1.038  43.511 227.584  1.00 20.00     0.027 A 
HETATM   20  C10 MIY  5181      -0.501  42.649 228.554  1.00 20.00     0.017 A 
ENDROOT
BRANCH   1  21
HETATM   21  C21 MIY  5181      -3.381  36.440 235.210  1.00 20.00     0.256 C 
HETATM   22  N2  MIY  5181      -4.719  36.293 235.334  1.00 20.00    -0.366 N 
ATOM     23  H22 MIY  5181      -5.346  36.197 234.535  1.00  0.00     0.159 HD
ATOM     24  H21 MIY  5181      -5.065  36.300 236.293  1.00  0.00     0.159 HD
HETATM   25  O8  MIY  5181      -2.618  36.557 236.182  1.00 20.00    -0.268 OA
ENDBRANCH   1  21
BRANCH   4  26
HETATM   26  O2  MIY  5181      -1.304  34.796 234.324  1.00 20.00    -0.358 OA
ATOM     27  H2  MIY  5181      -0.813  34.052 233.997  1.00  0.00     0.218 HD
ENDBRANCH   4  26
BRANCH   7  28
HETATM   28  O7  MIY  5181      -3.860  36.015 230.791  1.00 20.00    -0.374 OA
ATOM     29  H7  MIY  5181      -4.190  35.563 231.558  1.00  0.00     0.211 HD
ENDBRANCH   7  28
BRANCH   5  30
HETATM   30  N1  MIY  5181      -0.894  34.340 231.363  1.00 20.00    -0.390 N 
HETATM   31  C19 MIY  5181      -1.990  33.338 231.413  1.00 20.00     0.149 C 
HETATM   32  C20 MIY  5181      -0.287  34.309 229.990  1.00 20.00     0.149 C 
ENDBRANCH   5  30
BRANCH   8  33
HETATM   33  O6  MIY  5181      -4.814  38.351 229.950  1.00 20.00    -0.361 OA
ATOM     34  H6  MIY  5181      -5.191  39.223 229.968  1.00  0.00     0.217 HD
ENDBRANCH   8  33
BRANCH  17  35
HETATM   35  O4  MIY  5181      -4.241  41.859 226.869  1.00 20.00    -0.360 OA
ATOM     36  H4  MIY  5181      -5.030  42.296 227.169  1.00  0.00     0.217 HD
ENDBRANCH  17  35
BRANCH  20  37
HETATM   37  N7  MIY  5181       0.720  42.978 229.132  1.00 20.00    -0.291 NA
HETATM   38  C71 MIY  5181       1.804  43.000 228.127  1.00 20.00     0.116 C 
HETATM   39  CN7 MIY  5181       0.520  44.369 229.556  1.00 20.00     0.116 C 
ENDBRANCH  20  37
TORSDOF 7
ENDMDL
MODEL 8
REMARK VINA RESULT:      -5.9      3.052      7.922
REMARK  7 active torsions:
REMARK  status: ('A' for Active; 'I' for Inactive)
REMARK    1  A    between atoms: C2_6  and  C21_2 
REMARK       I    between atoms: C21_2  and  N2_3 
REMARK    2  A    between atoms: C3_9  and  O2_10 
REMARK    3  A    between atoms: C4_12  and  N1_13 
REMARK    4  A    between atoms: C18_17  and  O7_18 
REMARK    5  A    between atoms: C17_20  and  O6_21 
REMARK    6  A    between atoms: C13_31  and  O4_32 
REMARK    7  A    between atoms: C10_36  and  N7_37 
ROOT
HETATM    1  C2  MIY  5181      -0.168  35.421 237.749  1.00 20.00     0.116 C 
HETATM    2  C1  MIY  5181      -0.259  34.783 236.415  1.00 20.00     0.209 C 
HETATM    3  O1  MIY  5181      -1.069  33.894 236.243  1.00 20.00    -0.288 OA
HETATM    4  C3  MIY  5181       0.668  36.492 237.903  1.00 20.00     0.108 C 
HETATM    5  C4  MIY  5181       1.418  37.208 236.735  1.00 20.00     0.049 C 
HETATM    6  C5  MIY  5181       1.041  36.704 235.301  1.00 20.00     0.088 C 
HETATM    7  C18 MIY  5181       0.710  35.201 235.281  1.00 20.00     0.180 C 
HETATM    8  C17 MIY  5181       0.381  34.837 233.818  1.00 20.00     0.097 C 
HETATM    9  C16 MIY  5181       0.050  35.686 232.816  1.00 20.00     0.030 C 
HETATM   10  C7  MIY  5181      -0.014  37.178 233.002  1.00 20.00     0.030 C 
HETATM   11  C6  MIY  5181       0.014  37.543 234.505  1.00 20.00     0.024 C 
HETATM   12  C15 MIY  5181      -0.279  35.098 231.499  1.00 20.00     0.194 C 
HETATM   13  O5  MIY  5181      -0.106  33.910 231.193  1.00 20.00    -0.287 OA
HETATM   14  C14 MIY  5181      -0.974  35.935 230.494  1.00 20.00     0.056 A 
HETATM   15  C9  MIY  5181      -1.503  37.165 230.875  1.00 20.00    -0.019 A 
HETATM   16  C8  MIY  5181      -1.317  37.661 232.322  1.00 20.00     0.051 C 
HETATM   17  C13 MIY  5181      -1.103  35.408 229.213  1.00 20.00     0.080 A 
HETATM   18  C12 MIY  5181      -1.783  36.139 228.243  1.00 20.00     0.039 A 
HETATM   19  C11 MIY  5181      -2.326  37.374 228.598  1.00 20.00     0.027 A 
HETATM   20  C10 MIY  5181      -2.193  37.893 229.897  1.00 20.00     0.017 A 
ENDROOT
BRANCH   1  21
HETATM   21  C21 MIY  5181      -0.991  34.891 238.879  1.00 20.00     0.256 C 
HETATM   22  N2  MIY  5181      -2.321  35.101 238.764  1.00 20.00    -0.366 N 
ATOM     23  H22 MIY  5181      -2.741  35.596 237.977  1.00  0.00     0.159 HD
ATOM     24  H21 MIY  5181      -2.882  34.739 239.534  1.00  0.00     0.159 HD
HETATM   25  O8  MIY  5181      -0.480  34.288 239.837  1.00 20.00    -0.268 OA
ENDBRANCH   1  21
BRANCH   4  26
HETATM   26  O2  MIY  5181       0.846  36.978 239.145  1.00 20.00    -0.358 OA
ATOM     27  H2  MIY  5181       0.146  36.855 239.775  1.00  0.00     0.218 HD
ENDBRANCH   4  26
BRANCH   7  28
HETATM   28  O7  MIY  5181       1.928  34.482 235.525  1.00 20.00    -0.374 OA
ATOM     29  H7  MIY  5181       2.254  34.230 234.669  1.00  0.00     0.211 HD
ENDBRANCH   7  28
BRANCH   5  30
HETATM   30  N1  MIY  5181       2.935  37.435 237.008  1.00 20.00    -0.390 N 
HETATM   31  C19 MIY  5181       3.363  38.667 237.722  1.00 20.00     0.149 C 
HETATM   32  C20 MIY  5181       3.729  36.278 237.543  1.00 20.00     0.149 C 
ENDBRANCH   5  30
BRANCH   8  33
HETATM   33  O6  MIY  5181       0.525  33.548 233.469  1.00 20.00    -0.361 OA
ATOM     34  H6  MIY  5181       0.818  32.963 234.158  1.00  0.00     0.217 HD
ENDBRANCH   8  33
BRANCH  17  35
HETATM   35  O4  MIY  5181      -0.542  34.179 228.931  1.00 20.00    -0.360 OA
ATOM     36  H4  MIY  5181      -0.794  33.683 228.160  1.00  0.00     0.217 HD
ENDBRANCH  17  35
BRANCH  20  37
HETATM   37  N7  MIY  5181      -2.806  39.105 230.193  1.00 20.00    -0.291 NA
HETATM   38  C71 MIY  5181      -2.015  40.247 229.690  1.00 20.00     0.116 C 
HETATM   39  CN7 MIY  5181      -4.031  39.062 229.385  1.00 20.00     0.116 C 
ENDBRANCH  20  37
TORSDOF 7
ENDMDL
MODEL 9
REMARK VINA RESULT:      -5.9      3.132      7.685
REMARK  7 active torsions:
REMARK  status: ('A' for Active; 'I' for Inactive)
REMARK    1  A    between atoms: C2_6  and  C21_2 
REMARK       I    between atoms: C21_2  and  N2_3 
REMARK    2  A    between atoms: C3_9  and  O2_10 
REMARK    3  A    between atoms: C4_12  and  N1_13 
REMARK    4  A    between atoms: C18_17  and  O7_18 
REMARK    5  A    between atoms: C17_20  and  O6_21 
REMARK    6  A    between atoms: C13_31  and  O4_32 
REMARK    7  A    between atoms: C10_36  and  N7_37 
ROOT
HETATM    1  C2  MIY  5181       1.765  34.624 238.330  1.00 20.00     0.116 C 
HETATM    2  C1  MIY  5181       1.953  35.293 237.022  1.00 20.00     0.209 C 
HETATM    3  O1  MIY  5181       3.079  35.434 236.590  1.00 20.00    -0.288 OA
HETATM    4  C3  MIY  5181       0.490  34.373 238.756  1.00 20.00     0.108 C 
HETATM    5  C4  MIY  5181      -0.793  34.588 237.892  1.00 20.00     0.049 C 
HETATM    6  C5  MIY  5181      -0.527  34.992 236.403  1.00 20.00     0.088 C 
HETATM    7  C18 MIY  5181       0.733  35.862 236.253  1.00 20.00     0.180 C 
HETATM    8  C17 MIY  5181       0.864  36.202 234.753  1.00 20.00     0.097 C 
HETATM    9  C16 MIY  5181       0.265  35.572 233.715  1.00 20.00     0.030 C 
HETATM   10  C7  MIY  5181      -0.679  34.415 233.900  1.00 20.00     0.030 C 
HETATM   11  C6  MIY  5181      -0.594  33.866 235.344  1.00 20.00     0.024 C 
HETATM   12  C15 MIY  5181       0.584  36.043 232.349  1.00 20.00     0.194 C 
HETATM   13  O5  MIY  5181       1.216  37.078 232.088  1.00 20.00    -0.287 OA
HETATM   14  C14 MIY  5181       0.243  35.182 231.194  1.00 20.00     0.056 A 
HETATM   15  C9  MIY  5181      -0.157  33.867 231.416  1.00 20.00    -0.019 A 
HETATM   16  C8  MIY  5181      -0.285  33.340 232.858  1.00 20.00     0.051 C 
HETATM   17  C13 MIY  5181       0.391  35.735 229.927  1.00 20.00     0.080 A 
HETATM   18  C12 MIY  5181       0.120  34.952 228.807  1.00 20.00     0.039 A 
HETATM   19  C11 MIY  5181      -0.280  33.630 229.000  1.00 20.00     0.027 A 
HETATM   20  C10 MIY  5181      -0.422  33.082 230.285  1.00 20.00     0.017 A 
ENDROOT
BRANCH   1  21
HETATM   21  C21 MIY  5181       2.960  34.235 239.139  1.00 20.00     0.256 C 
HETATM   22  N2  MIY  5181       3.616  33.138 238.696  1.00 20.00    -0.366 N 
ATOM     23  H22 MIY  5181       3.316  32.601 237.882  1.00  0.00     0.159 HD
ATOM     24  H21 MIY  5181       4.431  32.873 239.248  1.00  0.00     0.159 HD
HETATM   25  O8  MIY  5181       3.324  34.888 240.129  1.00 20.00    -0.268 OA
ENDBRANCH   1  21
BRANCH   4  26
HETATM   26  O2  MIY  5181       0.326  33.891 240.001  1.00 20.00    -0.358 OA
ATOM     27  H2  MIY  5181      -0.010  34.480 240.666  1.00  0.00     0.218 HD
ENDBRANCH   4  26
BRANCH   7  28
HETATM   28  O7  MIY  5181       0.457  37.138 236.848  1.00 20.00    -0.374 OA
ATOM     29  H7  MIY  5181       1.111  37.732 236.500  1.00  0.00     0.211 HD
ENDBRANCH   7  28
BRANCH   5  30
HETATM   30  N1  MIY  5181      -1.921  35.374 238.627  1.00 20.00    -0.390 N 
HETATM   31  C19 MIY  5181      -2.625  36.466 237.906  1.00 20.00     0.149 C 
HETATM   32  C20 MIY  5181      -2.939  34.581 239.395  1.00 20.00     0.149 C 
ENDBRANCH   5  30
BRANCH   8  33
HETATM   33  O6  MIY  5181       1.575  37.298 234.441  1.00 20.00    -0.361 OA
ATOM     34  H6  MIY  5181       2.335  37.467 234.986  1.00  0.00     0.217 HD
ENDBRANCH   8  33
BRANCH  17  35
HETATM   35  O4  MIY  5181       0.792  37.051 229.809  1.00 20.00    -0.360 OA
ATOM     36  H4  MIY  5181       1.280  37.356 229.052  1.00  0.00     0.217 HD
ENDBRANCH  17  35
BRANCH  20  37
HETATM   37  N7  MIY  5181      -0.772  31.741 230.401  1.00 20.00    -0.291 NA
HETATM   38  C71 MIY  5181      -2.080  31.469 229.770  1.00 20.00     0.116 C 
HETATM   39  CN7 MIY  5181       0.235  31.065 229.572  1.00 20.00     0.116 C 
ENDBRANCH  20  37
TORSDOF 7
ENDMDL
