MODEL 1
REMARK VINA RESULT:      -8.6      0.000      0.000
REMARK  9 active torsions:
REMARK  status: ('A' for Active; 'I' for Inactive)
REMARK    1  A    between atoms: C10_14  and  O6_16 
REMARK    2  A    between atoms: C16_23  and  O7_24 
REMARK    3  A    between atoms: C27_36  and  O9_37 
REMARK    4  A    between atoms: C28_38  and  O10_39 
REMARK    5  A    between atoms: C34_47  and  C35_48 
REMARK    6  A    between atoms: C35_48  and  C36_49 
REMARK    7  A    between atoms: C36_49  and  C37_50 
REMARK    8  A    between atoms: C39_52  and  O12_53 
REMARK    9  A    between atoms: C40_54  and  O13_55 
ROOT
HETATM    1  C1  RAP  6544      -4.550  37.964 228.962  1.00 20.00     0.282 C 
HETATM    2  O1  RAP  6544      -3.249  37.402 229.081  1.00 20.00    -0.314 OA
HETATM    3  O2  RAP  6544      -4.837  38.913 229.689  1.00 20.00    -0.263 OA
HETATM    4  C2  RAP  6544      -5.566  37.452 227.942  1.00 20.00     0.187 C 
HETATM    5  C3  RAP  6544      -6.948  37.323 228.564  1.00 20.00     0.035 C 
HETATM    6  C4  RAP  6544      -7.094  36.120 229.485  1.00 20.00     0.004 C 
HETATM    7  C5  RAP  6544      -6.704  34.878 228.705  1.00 20.00     0.020 C 
HETATM    8  C6  RAP  6544      -5.303  34.990 228.190  1.00 20.00     0.127 C 
HETATM    9  N7  RAP  6544      -5.239  36.169 227.312  1.00 20.00    -0.331 N 
HETATM   10  C8  RAP  6544      -4.741  36.130 226.066  1.00 20.00     0.296 C 
HETATM   11  O3  RAP  6544      -4.643  37.194 225.440  1.00 20.00    -0.264 OA
HETATM   12  C9  RAP  6544      -4.401  34.927 225.412  1.00 20.00     0.278 C 
HETATM   13  O4  RAP  6544      -5.277  34.308 224.794  1.00 20.00    -0.281 OA
HETATM   14  C10 RAP  6544      -2.972  34.353 225.432  1.00 20.00     0.238 C 
HETATM   15  O5  RAP  6544      -2.817  33.782 226.711  1.00 20.00    -0.343 OA
HETATM   16  C11 RAP  6544      -1.851  35.448 225.212  1.00 20.00     0.053 C 
HETATM   17  C12 RAP  6544      -0.449  34.890 225.552  1.00 20.00     0.013 C 
HETATM   18  C13 RAP  6544      -0.464  34.202 226.908  1.00 20.00     0.033 C 
HETATM   19  C14 RAP  6544      -1.612  33.211 227.076  1.00 20.00     0.128 C 
HETATM   20  C15 RAP  6544      -1.777  32.861 228.544  1.00 20.00     0.068 C 
HETATM   21  C16 RAP  6544      -0.676  32.012 229.171  1.00 20.00     0.152 C 
HETATM   22  C17 RAP  6544      -0.941  31.765 230.642  1.00 20.00    -0.055 C 
HETATM   23  C18 RAP  6544      -0.114  32.300 231.531  1.00 20.00     0.005 C 
HETATM   24  C19 RAP  6544      -0.255  32.175 232.988  1.00 20.00     0.000 C 
HETATM   25  C20 RAP  6544       0.668  32.712 233.773  1.00 20.00    -0.000 C 
HETATM   26  C21 RAP  6544       0.523  32.704 235.241  1.00 20.00    -0.004 C 
HETATM   27  C22 RAP  6544       1.320  33.406 236.023  1.00 20.00    -0.022 C 
HETATM   28  C23 RAP  6544       1.152  33.523 237.523  1.00 20.00     0.005 C 
HETATM   29  C24 RAP  6544       1.049  35.006 237.834  1.00 20.00     0.020 C 
HETATM   30  C25 RAP  6544       0.011  35.805 237.068  1.00 20.00     0.055 C 
HETATM   31  C26 RAP  6544       0.334  37.292 237.110  1.00 20.00     0.162 C 
HETATM   32  O8  RAP  6544      -0.046  38.005 238.036  1.00 20.00    -0.295 OA
HETATM   33  C27 RAP  6544       1.141  37.851 235.943  1.00 20.00     0.223 C 
HETATM   34  C28 RAP  6544       0.267  38.222 234.702  1.00 20.00     0.183 C 
HETATM   35  C29 RAP  6544      -0.081  37.015 233.811  1.00 20.00    -0.056 C 
HETATM   36  C30 RAP  6544      -1.313  36.515 233.712  1.00 20.00    -0.010 C 
HETATM   37  C31 RAP  6544      -1.836  35.358 232.848  1.00 20.00     0.074 C 
HETATM   38  C32 RAP  6544      -2.592  35.919 231.644  1.00 20.00     0.136 C 
HETATM   39  O11 RAP  6544      -3.826  35.929 231.589  1.00 20.00    -0.297 OA
HETATM   40  C33 RAP  6544      -1.726  36.517 230.541  1.00 20.00     0.112 C 
HETATM   41  C34 RAP  6544      -2.297  37.811 229.999  1.00 20.00     0.142 C 
HETATM   42  C43 RAP  6544      -1.848  36.123 223.809  1.00 20.00     0.016 C 
HETATM   43  C44 RAP  6544      -2.153  30.874 230.962  1.00 20.00     0.046 C 
HETATM   44  C45 RAP  6544       2.332  32.900 238.255  1.00 20.00     0.014 C 
HETATM   45  C46 RAP  6544      -1.405  35.539 237.589  1.00 20.00     0.018 C 
HETATM   46  C47 RAP  6544       1.102  36.431 233.062  1.00 20.00     0.046 C 
HETATM   47  C48 RAP  6544      -2.781  34.492 233.697  1.00 20.00     0.022 C 
ENDROOT
BRANCH  41  48
HETATM   48  C35 RAP  6544      -1.357  38.765 229.234  1.00 20.00     0.012 C 
HETATM   49  C49 RAP  6544       0.062  38.272 229.220  1.00 20.00     0.012 C 
BRANCH  48  50
HETATM   50  C36 RAP  6544      -1.423  40.193 229.771  1.00 20.00     0.011 C 
BRANCH  50  51
HETATM   51  C37 RAP  6544      -0.644  41.266 229.008  1.00 20.00    -0.012 C 
HETATM   52  C42 RAP  6544       0.027  42.330 229.876  1.00 20.00     0.007 C 
HETATM   53  C41 RAP  6544       0.823  43.335 229.053  1.00 20.00     0.035 C 
HETATM   54  C40 RAP  6544      -0.059  43.975 227.963  1.00 20.00     0.147 C 
HETATM   55  C39 RAP  6544      -0.799  42.920 227.068  1.00 20.00     0.150 C 
HETATM   56  C38 RAP  6544      -1.545  41.918 227.952  1.00 20.00     0.039 C 
BRANCH  54  57
HETATM   57  O13 RAP  6544       0.753  44.803 227.132  1.00 20.00    -0.393 OA
ATOM     58  H13 RAP  6544       1.667  44.593 227.284  1.00  0.00     0.210 HD
ENDBRANCH  54  57
BRANCH  55  59
HETATM   59  O12 RAP  6544      -1.770  43.550 226.272  1.00 20.00    -0.388 OA
HETATM   60  C52 RAP  6544      -2.329  42.793 225.254  1.00 20.00     0.202 C 
ENDBRANCH  55  59
ENDBRANCH  50  51
ENDBRANCH  48  50
ENDBRANCH  41  48
BRANCH  34  61
HETATM   61  O10 RAP  6544      -0.938  38.831 235.189  1.00 20.00    -0.388 OA
ATOM     62  H10 RAP  6544      -1.500  38.135 235.508  1.00  0.00     0.210 HD
ENDBRANCH  34  61
BRANCH  33  63
HETATM   63  O9  RAP  6544       1.771  39.034 236.359  1.00 20.00    -0.380 OA
HETATM   64  C51 RAP  6544       2.764  38.878 237.313  1.00 20.00     0.202 C 
ENDBRANCH  33  63
BRANCH  14  65
HETATM   65  O6  RAP  6544      -2.860  33.360 224.407  1.00 20.00    -0.359 OA
ATOM     66  H6  RAP  6544      -3.688  33.302 223.946  1.00  0.00     0.213 HD
ENDBRANCH  14  65
BRANCH  21  67
HETATM   67  O7  RAP  6544      -0.641  30.794 228.497  1.00 20.00    -0.386 OA
HETATM   68  C50 RAP  6544       0.558  30.471 227.867  1.00 20.00     0.202 C 
ENDBRANCH  21  67
TORSDOF 9
ENDMDL
MODEL 2
REMARK VINA RESULT:      -8.3      2.042      3.127
REMARK  9 active torsions:
REMARK  status: ('A' for Active; 'I' for Inactive)
REMARK    1  A    between atoms: C10_14  and  O6_16 
REMARK    2  A    between atoms: C16_23  and  O7_24 
REMARK    3  A    between atoms: C27_36  and  O9_37 
REMARK    4  A    between atoms: C28_38  and  O10_39 
REMARK    5  A    between atoms: C34_47  and  C35_48 
REMARK    6  A    between atoms: C35_48  and  C36_49 
REMARK    7  A    between atoms: C36_49  and  C37_50 
REMARK    8  A    between atoms: C39_52  and  O12_53 
REMARK    9  A    between atoms: C40_54  and  O13_55 
ROOT
HETATM    1  C1  RAP  6544      -5.559  36.218 232.477  1.00 20.00     0.282 C 
HETATM    2  O1  RAP  6544      -4.164  36.148 232.213  1.00 20.00    -0.314 OA
HETATM    3  O2  RAP  6544      -5.921  36.727 233.537  1.00 20.00    -0.263 OA
HETATM    4  C2  RAP  6544      -6.602  35.722 231.477  1.00 20.00     0.187 C 
HETATM    5  C3  RAP  6544      -7.694  34.924 232.174  1.00 20.00     0.035 C 
HETATM    6  C4  RAP  6544      -7.258  33.526 232.588  1.00 20.00     0.004 C 
HETATM    7  C5  RAP  6544      -6.730  32.811 231.358  1.00 20.00     0.020 C 
HETATM    8  C6  RAP  6544      -5.590  33.568 230.750  1.00 20.00     0.127 C 
HETATM    9  N7  RAP  6544      -6.085  34.902 230.376  1.00 20.00    -0.331 N 
HETATM   10  C8  RAP  6544      -5.917  35.433 229.155  1.00 20.00     0.296 C 
HETATM   11  O3  RAP  6544      -6.285  36.600 228.965  1.00 20.00    -0.264 OA
HETATM   12  C9  RAP  6544      -5.415  34.696 228.060  1.00 20.00     0.278 C 
HETATM   13  O4  RAP  6544      -6.200  34.031 227.372  1.00 20.00    -0.281 OA
HETATM   14  C10 RAP  6544      -3.922  34.691 227.683  1.00 20.00     0.238 C 
HETATM   15  O5  RAP  6544      -3.302  33.846 228.625  1.00 20.00    -0.343 OA
HETATM   16  C11 RAP  6544      -3.252  36.124 227.750  1.00 20.00     0.053 C 
HETATM   17  C12 RAP  6544      -1.711  36.025 227.677  1.00 20.00     0.013 C 
HETATM   18  C13 RAP  6544      -1.196  34.991 228.667  1.00 20.00     0.033 C 
HETATM   19  C14 RAP  6544      -1.934  33.658 228.595  1.00 20.00     0.128 C 
HETATM   20  C15 RAP  6544      -1.626  32.835 229.834  1.00 20.00     0.068 C 
HETATM   21  C16 RAP  6544      -0.210  32.282 229.953  1.00 20.00     0.152 C 
HETATM   22  C17 RAP  6544      -0.025  31.515 231.245  1.00 20.00    -0.055 C 
HETATM   23  C18 RAP  6544       0.804  32.004 232.157  1.00 20.00     0.005 C 
HETATM   24  C19 RAP  6544       1.065  31.391 233.467  1.00 20.00     0.000 C 
HETATM   25  C20 RAP  6544       1.957  31.949 234.273  1.00 20.00    -0.000 C 
HETATM   26  C21 RAP  6544       2.184  31.434 235.637  1.00 20.00    -0.004 C 
HETATM   27  C22 RAP  6544       2.912  32.093 236.518  1.00 20.00    -0.022 C 
HETATM   28  C23 RAP  6544       3.089  31.672 237.960  1.00 20.00     0.005 C 
HETATM   29  C24 RAP  6544       2.643  32.845 238.814  1.00 20.00     0.020 C 
HETATM   30  C25 RAP  6544       1.265  33.419 238.541  1.00 20.00     0.055 C 
HETATM   31  C26 RAP  6544       1.147  34.832 239.096  1.00 20.00     0.162 C 
HETATM   32  O8  RAP  6544       0.816  35.038 240.261  1.00 20.00    -0.295 OA
HETATM   33  C27 RAP  6544       1.449  35.974 238.131  1.00 20.00     0.223 C 
HETATM   34  C28 RAP  6544       0.230  36.376 237.240  1.00 20.00     0.183 C 
HETATM   35  C29 RAP  6544       0.036  35.465 236.013  1.00 20.00    -0.056 C 
HETATM   36  C30 RAP  6544      -0.985  34.617 235.891  1.00 20.00    -0.010 C 
HETATM   37  C31 RAP  6544      -1.348  33.679 234.730  1.00 20.00     0.074 C 
HETATM   38  C32 RAP  6544      -2.503  34.278 233.929  1.00 20.00     0.136 C 
HETATM   39  O11 RAP  6544      -3.662  33.866 234.038  1.00 20.00    -0.297 OA
HETATM   40  C33 RAP  6544      -2.142  35.456 233.030  1.00 20.00     0.112 C 
HETATM   41  C34 RAP  6544      -3.175  36.563 233.089  1.00 20.00     0.142 C 
HETATM   42  C43 RAP  6544      -3.786  37.155 226.713  1.00 20.00     0.016 C 
HETATM   43  C44 RAP  6544      -0.813  30.199 231.358  1.00 20.00     0.046 C 
HETATM   44  C45 RAP  6544       4.539  31.315 238.250  1.00 20.00     0.014 C 
HETATM   45  C46 RAP  6544       0.158  32.520 239.098  1.00 20.00     0.018 C 
HETATM   46  C47 RAP  6544       1.117  35.603 234.957  1.00 20.00     0.046 C 
HETATM   47  C48 RAP  6544      -1.767  32.316 235.305  1.00 20.00     0.022 C 
ENDROOT
BRANCH  41  48
HETATM   48  C35 RAP  6544      -2.766  37.975 232.625  1.00 20.00     0.012 C 
HETATM   49  C49 RAP  6544      -3.728  39.028 233.094  1.00 20.00     0.012 C 
BRANCH  48  50
HETATM   50  C36 RAP  6544      -2.582  38.053 231.111  1.00 20.00     0.011 C 
BRANCH  50  51
HETATM   51  C37 RAP  6544      -2.712  39.431 230.459  1.00 20.00    -0.012 C 
HETATM   52  C42 RAP  6544      -3.726  39.524 229.319  1.00 20.00     0.007 C 
HETATM   53  C41 RAP  6544      -3.836  40.933 228.752  1.00 20.00     0.035 C 
HETATM   54  C40 RAP  6544      -2.455  41.462 228.318  1.00 20.00     0.147 C 
HETATM   55  C39 RAP  6544      -1.370  41.353 229.445  1.00 20.00     0.150 C 
HETATM   56  C38 RAP  6544      -1.335  39.928 230.000  1.00 20.00     0.039 C 
BRANCH  54  57
HETATM   57  O13 RAP  6544      -2.581  42.826 227.922  1.00 20.00    -0.393 OA
ATOM     58  H13 RAP  6544      -3.005  43.313 228.619  1.00  0.00     0.210 HD
ENDBRANCH  54  57
BRANCH  55  59
HETATM   59  O12 RAP  6544      -0.092  41.607 228.919  1.00 20.00    -0.388 OA
HETATM   60  C52 RAP  6544       0.572  42.722 229.406  1.00 20.00     0.202 C 
ENDBRANCH  55  59
ENDBRANCH  50  51
ENDBRANCH  48  50
ENDBRANCH  41  48
BRANCH  34  61
HETATM   61  O10 RAP  6544      -0.942  36.333 238.067  1.00 20.00    -0.388 OA
ATOM     62  H10 RAP  6544      -0.908  35.528 238.569  1.00  0.00     0.210 HD
ENDBRANCH  34  61
BRANCH  33  63
HETATM   63  O9  RAP  6544       1.794  37.111 238.876  1.00 20.00    -0.380 OA
HETATM   64  C51 RAP  6544       2.039  38.257 238.137  1.00 20.00     0.202 C 
ENDBRANCH  33  63
BRANCH  14  65
HETATM   65  O6  RAP  6544      -3.783  34.174 226.357  1.00 20.00    -0.359 OA
ATOM     66  H6  RAP  6544      -4.262  34.735 225.759  1.00  0.00     0.213 HD
ENDBRANCH  14  65
BRANCH  21  67
HETATM   67  O7  RAP  6544       0.008  31.431 228.873  1.00 20.00    -0.386 OA
HETATM   68  C50 RAP  6544       1.173  31.646 228.142  1.00 20.00     0.202 C 
ENDBRANCH  21  67
TORSDOF 9
ENDMDL
MODEL 3
REMARK VINA RESULT:      -7.9      3.093      9.682
REMARK  9 active torsions:
REMARK  status: ('A' for Active; 'I' for Inactive)
REMARK    1  A    between atoms: C10_14  and  O6_16 
REMARK    2  A    between atoms: C16_23  and  O7_24 
REMARK    3  A    between atoms: C27_36  and  O9_37 
REMARK    4  A    between atoms: C28_38  and  O10_39 
REMARK    5  A    between atoms: C34_47  and  C35_48 
REMARK    6  A    between atoms: C35_48  and  C36_49 
REMARK    7  A    between atoms: C36_49  and  C37_50 
REMARK    8  A    between atoms: C39_52  and  O12_53 
REMARK    9  A    between atoms: C40_54  and  O13_55 
ROOT
HETATM    1  C1  RAP  6544      -0.440  37.385 230.094  1.00 20.00     0.282 C 
HETATM    2  O1  RAP  6544      -1.844  37.605 230.119  1.00 20.00    -0.314 OA
HETATM    3  O2  RAP  6544       0.250  38.137 229.408  1.00 20.00    -0.263 OA
HETATM    4  C2  RAP  6544       0.224  36.281 230.915  1.00 20.00     0.187 C 
HETATM    5  C3  RAP  6544       1.269  35.540 230.094  1.00 20.00     0.035 C 
HETATM    6  C4  RAP  6544       0.675  34.581 229.072  1.00 20.00     0.004 C 
HETATM    7  C5  RAP  6544      -0.253  33.628 229.802  1.00 20.00     0.020 C 
HETATM    8  C6  RAP  6544      -1.332  34.379 230.520  1.00 20.00     0.127 C 
HETATM    9  N7  RAP  6544      -0.685  35.282 231.485  1.00 20.00    -0.331 N 
HETATM   10  C8  RAP  6544      -1.024  35.333 232.783  1.00 20.00     0.296 C 
HETATM   11  O3  RAP  6544      -0.489  36.192 233.497  1.00 20.00    -0.264 OA
HETATM   12  C9  RAP  6544      -1.901  34.404 233.386  1.00 20.00     0.278 C 
HETATM   13  O4  RAP  6544      -1.443  33.341 233.822  1.00 20.00    -0.281 OA
HETATM   14  C10 RAP  6544      -3.411  34.668 233.526  1.00 20.00     0.238 C 
HETATM   15  O5  RAP  6544      -3.950  34.448 232.242  1.00 20.00    -0.343 OA
HETATM   16  C11 RAP  6544      -3.753  36.143 233.988  1.00 20.00     0.053 C 
HETATM   17  C12 RAP  6544      -5.257  36.451 233.810  1.00 20.00     0.013 C 
HETATM   18  C13 RAP  6544      -5.722  36.054 232.416  1.00 20.00     0.033 C 
HETATM   19  C14 RAP  6544      -5.297  34.646 232.011  1.00 20.00     0.128 C 
HETATM   20  C15 RAP  6544      -5.465  34.472 230.512  1.00 20.00     0.068 C 
HETATM   21  C16 RAP  6544      -6.894  34.418 229.985  1.00 20.00     0.152 C 
HETATM   22  C17 RAP  6544      -6.922  34.280 228.478  1.00 20.00    -0.055 C 
HETATM   23  C18 RAP  6544      -7.404  35.286 227.760  1.00 20.00     0.005 C 
HETATM   24  C19 RAP  6544      -7.470  35.313 226.292  1.00 20.00     0.000 C 
HETATM   25  C20 RAP  6544      -8.023  36.356 225.691  1.00 20.00    -0.000 C 
HETATM   26  C21 RAP  6544      -8.024  36.480 224.221  1.00 20.00    -0.004 C 
HETATM   27  C22 RAP  6544      -8.384  37.597 223.617  1.00 20.00    -0.022 C 
HETATM   28  C23 RAP  6544      -8.301  37.820 222.122  1.00 20.00     0.005 C 
HETATM   29  C24 RAP  6544      -7.447  39.058 221.914  1.00 20.00     0.020 C 
HETATM   30  C25 RAP  6544      -6.085  39.083 222.582  1.00 20.00     0.055 C 
HETATM   31  C26 RAP  6544      -5.566  40.509 222.701  1.00 20.00     0.162 C 
HETATM   32  O8  RAP  6544      -4.940  41.043 221.787  1.00 20.00    -0.295 OA
HETATM   33  C27 RAP  6544      -5.853  41.236 224.011  1.00 20.00     0.223 C 
HETATM   34  C28 RAP  6544      -4.819  40.919 225.139  1.00 20.00     0.183 C 
HETATM   35  C29 RAP  6544      -5.098  39.595 225.876  1.00 20.00    -0.056 C 
HETATM   36  C30 RAP  6544      -4.321  38.519 225.759  1.00 20.00    -0.010 C 
HETATM   37  C31 RAP  6544      -4.428  37.151 226.447  1.00 20.00     0.074 C 
HETATM   38  C32 RAP  6544      -3.396  37.060 227.571  1.00 20.00     0.136 C 
HETATM   39  O11 RAP  6544      -2.348  36.419 227.449  1.00 20.00    -0.297 OA
HETATM   40  C33 RAP  6544      -3.717  37.859 228.829  1.00 20.00     0.112 C 
HETATM   41  C34 RAP  6544      -2.501  38.575 229.381  1.00 20.00     0.142 C 
HETATM   42  C43 RAP  6544      -3.282  36.515 235.424  1.00 20.00     0.016 C 
HETATM   43  C44 RAP  6544      -6.404  32.944 227.920  1.00 20.00     0.046 C 
HETATM   44  C45 RAP  6544      -9.685  38.012 221.521  1.00 20.00     0.014 C 
HETATM   45  C46 RAP  6544      -5.077  38.196 221.846  1.00 20.00     0.018 C 
HETATM   46  C47 RAP  6544      -6.346  39.614 226.740  1.00 20.00     0.046 C 
HETATM   47  C48 RAP  6544      -4.164  36.049 225.408  1.00 20.00     0.022 C 
ENDROOT
BRANCH  41  48
HETATM   48  C35 RAP  6544      -2.722  39.760 230.343  1.00 20.00     0.012 C 
HETATM   49  C49 RAP  6544      -3.432  39.345 231.601  1.00 20.00     0.012 C 
BRANCH  48  50
HETATM   50  C36 RAP  6544      -3.455  40.919 229.672  1.00 20.00     0.011 C 
BRANCH  50  51
HETATM   51  C37 RAP  6544      -2.599  42.027 229.055  1.00 20.00    -0.012 C 
HETATM   52  C42 RAP  6544      -2.524  42.024 227.528  1.00 20.00     0.007 C 
HETATM   53  C41 RAP  6544      -1.698  43.181 226.984  1.00 20.00     0.035 C 
HETATM   54  C40 RAP  6544      -0.291  43.198 227.615  1.00 20.00     0.147 C 
HETATM   55  C39 RAP  6544      -0.316  43.165 229.183  1.00 20.00     0.150 C 
HETATM   56  C38 RAP  6544      -1.193  42.008 229.666  1.00 20.00     0.039 C 
BRANCH  54  57
HETATM   57  O13 RAP  6544       0.399  44.369 227.184  1.00 20.00    -0.393 OA
ATOM     58  H13 RAP  6544       1.334  44.235 227.288  1.00  0.00     0.210 HD
ENDBRANCH  54  57
BRANCH  55  59
HETATM   59  O12 RAP  6544       0.973  42.927 229.687  1.00 20.00    -0.388 OA
HETATM   60  C52 RAP  6544       1.601  43.989 230.319  1.00 20.00     0.202 C 
ENDBRANCH  55  59
ENDBRANCH  50  51
ENDBRANCH  48  50
ENDBRANCH  41  48
BRANCH  34  61
HETATM   61  O10 RAP  6544      -3.520  40.872 224.533  1.00 20.00    -0.388 OA
ATOM     62  H10 RAP  6544      -2.978  40.299 225.061  1.00  0.00     0.210 HD
ENDBRANCH  34  61
BRANCH  33  63
HETATM   63  O9  RAP  6544      -5.786  42.618 223.781  1.00 20.00    -0.380 OA
HETATM   64  C51 RAP  6544      -5.886  43.416 224.909  1.00 20.00     0.202 C 
ENDBRANCH  33  63
BRANCH  14  65
HETATM   65  O6  RAP  6544      -3.953  33.746 234.477  1.00 20.00    -0.359 OA
ATOM     66  H6  RAP  6544      -4.900  33.766 234.416  1.00  0.00     0.213 HD
ENDBRANCH  14  65
BRANCH  21  67
HETATM   67  O7  RAP  6544      -7.520  33.316 230.563  1.00 20.00    -0.386 OA
HETATM   68  C50 RAP  6544      -8.901  33.399 230.715  1.00 20.00     0.202 C 
ENDBRANCH  21  67
TORSDOF 9
ENDMDL
MODEL 4
REMARK VINA RESULT:      -7.7      3.169      9.348
REMARK  9 active torsions:
REMARK  status: ('A' for Active; 'I' for Inactive)
REMARK    1  A    between atoms: C10_14  and  O6_16 
REMARK    2  A    between atoms: C16_23  and  O7_24 
REMARK    3  A    between atoms: C27_36  and  O9_37 
REMARK    4  A    between atoms: C28_38  and  O10_39 
REMARK    5  A    between atoms: C34_47  and  C35_48 
REMARK    6  A    between atoms: C35_48  and  C36_49 
REMARK    7  A    between atoms: C36_49  and  C37_50 
REMARK    8  A    between atoms: C39_52  and  O12_53 
REMARK    9  A    between atoms: C40_54  and  O13_55 
ROOT
HETATM    1  C1  RAP  6544      -0.161  35.991 229.293  1.00 20.00     0.282 C 
HETATM    2  O1  RAP  6544      -1.367  36.616 229.715  1.00 20.00    -0.314 OA
HETATM    3  O2  RAP  6544       0.646  36.664 228.655  1.00 20.00    -0.263 OA
HETATM    4  C2  RAP  6544       0.166  34.540 229.641  1.00 20.00     0.187 C 
HETATM    5  C3  RAP  6544       0.731  33.801 228.437  1.00 20.00     0.035 C 
HETATM    6  C4  RAP  6544      -0.318  33.435 227.397  1.00 20.00     0.004 C 
HETATM    7  C5  RAP  6544      -1.411  32.641 228.088  1.00 20.00     0.020 C 
HETATM    8  C6  RAP  6544      -2.019  33.431 229.205  1.00 20.00     0.127 C 
HETATM    9  N7  RAP  6544      -0.951  33.747 230.166  1.00 20.00    -0.331 N 
HETATM   10  C8  RAP  6544      -1.050  33.500 231.482  1.00 20.00     0.296 C 
HETATM   11  O3  RAP  6544      -0.137  33.888 232.223  1.00 20.00    -0.264 OA
HETATM   12  C9  RAP  6544      -2.105  32.751 232.046  1.00 20.00     0.278 C 
HETATM   13  O4  RAP  6544      -2.010  31.518 232.093  1.00 20.00    -0.281 OA
HETATM   14  C10 RAP  6544      -3.375  33.412 232.612  1.00 20.00     0.238 C 
HETATM   15  O5  RAP  6544      -4.141  33.775 231.486  1.00 20.00    -0.343 OA
HETATM   16  C11 RAP  6544      -3.079  34.704 233.478  1.00 20.00     0.053 C 
HETATM   17  C12 RAP  6544      -4.374  35.502 233.754  1.00 20.00     0.013 C 
HETATM   18  C13 RAP  6544      -5.154  35.716 232.465  1.00 20.00     0.033 C 
HETATM   19  C14 RAP  6544      -5.341  34.442 231.648  1.00 20.00     0.128 C 
HETATM   20  C15 RAP  6544      -5.782  34.797 230.239  1.00 20.00     0.068 C 
HETATM   21  C16 RAP  6544      -7.193  35.353 230.084  1.00 20.00     0.152 C 
HETATM   22  C17 RAP  6544      -7.494  35.699 228.641  1.00 20.00    -0.055 C 
HETATM   23  C18 RAP  6544      -7.674  36.974 228.322  1.00 20.00     0.005 C 
HETATM   24  C19 RAP  6544      -7.944  37.468 226.964  1.00 20.00     0.000 C 
HETATM   25  C20 RAP  6544      -8.159  38.763 226.781  1.00 20.00    -0.000 C 
HETATM   26  C21 RAP  6544      -8.333  39.326 225.429  1.00 20.00    -0.004 C 
HETATM   27  C22 RAP  6544      -8.344  40.627 225.213  1.00 20.00    -0.022 C 
HETATM   28  C23 RAP  6544      -8.409  41.260 223.839  1.00 20.00     0.005 C 
HETATM   29  C24 RAP  6544      -7.202  42.175 223.725  1.00 20.00     0.020 C 
HETATM   30  C25 RAP  6544      -5.843  41.571 224.023  1.00 20.00     0.055 C 
HETATM   31  C26 RAP  6544      -4.825  42.657 224.343  1.00 20.00     0.162 C 
HETATM   32  O8  RAP  6544      -4.191  43.223 223.455  1.00 20.00    -0.295 OA
HETATM   33  C27 RAP  6544      -4.627  42.998 225.816  1.00 20.00     0.223 C 
HETATM   34  C28 RAP  6544      -3.626  42.047 226.547  1.00 20.00     0.183 C 
HETATM   35  C29 RAP  6544      -4.258  40.716 226.997  1.00 20.00    -0.056 C 
HETATM   36  C30 RAP  6544      -3.956  39.543 226.442  1.00 20.00    -0.010 C 
HETATM   37  C31 RAP  6544      -4.454  38.133 226.793  1.00 20.00     0.074 C 
HETATM   38  C32 RAP  6544      -3.371  37.387 227.573  1.00 20.00     0.136 C 
HETATM   39  O11 RAP  6544      -2.662  36.523 227.049  1.00 20.00    -0.297 OA
HETATM   40  C33 RAP  6544      -3.186  37.820 229.023  1.00 20.00     0.112 C 
HETATM   41  C34 RAP  6544      -1.724  37.919 229.412  1.00 20.00     0.142 C 
HETATM   42  C43 RAP  6544      -2.296  34.453 234.800  1.00 20.00     0.016 C 
HETATM   43  C44 RAP  6544      -7.591  34.507 227.674  1.00 20.00     0.046 C 
HETATM   44  C45 RAP  6544      -9.699  42.047 223.661  1.00 20.00     0.014 C 
HETATM   45  C46 RAP  6544      -5.352  40.686 222.873  1.00 20.00     0.018 C 
HETATM   46  C47 RAP  6544      -5.268  40.854 228.121  1.00 20.00     0.046 C 
HETATM   47  C48 RAP  6544      -4.769  37.378 225.492  1.00 20.00     0.022 C 
ENDROOT
BRANCH  41  48
HETATM   48  C35 RAP  6544      -1.349  38.758 230.649  1.00 20.00     0.012 C 
HETATM   49  C49 RAP  6544      -1.895  38.171 231.920  1.00 20.00     0.012 C 
BRANCH  48  50
HETATM   50  C36 RAP  6544      -1.775  40.217 230.507  1.00 20.00     0.011 C 
BRANCH  50  51
HETATM   51  C37 RAP  6544      -1.078  41.051 229.431  1.00 20.00    -0.012 C 
HETATM   52  C42 RAP  6544       0.259  40.498 228.937  1.00 20.00     0.007 C 
HETATM   53  C41 RAP  6544       0.871  41.352 227.835  1.00 20.00     0.035 C 
HETATM   54  C40 RAP  6544       1.003  42.821 228.285  1.00 20.00     0.147 C 
HETATM   55  C39 RAP  6544      -0.337  43.422 228.834  1.00 20.00     0.150 C 
HETATM   56  C38 RAP  6544      -0.921  42.500 229.907  1.00 20.00     0.039 C 
BRANCH  54  57
HETATM   57  O13 RAP  6544       1.449  43.608 227.182  1.00 20.00    -0.393 OA
ATOM     58  H13 RAP  6544       0.694  43.912 226.692  1.00  0.00     0.210 HD
ENDBRANCH  54  57
BRANCH  55  59
HETATM   59  O12 RAP  6544      -0.100  44.659 229.457  1.00 20.00    -0.388 OA
HETATM   60  C52 RAP  6544       1.002  44.733 230.295  1.00 20.00     0.202 C 
ENDBRANCH  55  59
ENDBRANCH  50  51
ENDBRANCH  48  50
ENDBRANCH  41  48
BRANCH  34  61
HETATM   61  O10 RAP  6544      -2.540  41.788 225.646  1.00 20.00    -0.388 OA
ATOM     62  H10 RAP  6544      -2.874  41.878 224.761  1.00  0.00     0.210 HD
ENDBRANCH  34  61
BRANCH  33  63
HETATM   63  O9  RAP  6544      -4.093  44.292 225.909  1.00 20.00    -0.380 OA
HETATM   64  C51 RAP  6544      -5.017  45.309 226.081  1.00 20.00     0.202 C 
ENDBRANCH  33  63
BRANCH  14  65
HETATM   65  O6  RAP  6544      -4.069  32.459 233.423  1.00 20.00    -0.359 OA
ATOM     66  H6  RAP  6544      -4.590  31.900 232.859  1.00  0.00     0.213 HD
ENDBRANCH  14  65
BRANCH  21  67
HETATM   67  O7  RAP  6544      -8.086  34.377 230.522  1.00 20.00    -0.386 OA
HETATM   68  C50 RAP  6544      -9.238  34.834 231.155  1.00 20.00     0.202 C 
ENDBRANCH  21  67
TORSDOF 9
ENDMDL
MODEL 5
REMARK VINA RESULT:      -7.3      2.718      4.444
REMARK  9 active torsions:
REMARK  status: ('A' for Active; 'I' for Inactive)
REMARK    1  A    between atoms: C10_14  and  O6_16 
REMARK    2  A    between atoms: C16_23  and  O7_24 
REMARK    3  A    between atoms: C27_36  and  O9_37 
REMARK    4  A    between atoms: C28_38  and  O10_39 
REMARK    5  A    between atoms: C34_47  and  C35_48 
REMARK    6  A    between atoms: C35_48  and  C36_49 
REMARK    7  A    between atoms: C36_49  and  C37_50 
REMARK    8  A    between atoms: C39_52  and  O12_53 
REMARK    9  A    between atoms: C40_54  and  O13_55 
ROOT
HETATM    1  C1  RAP  6544      -6.403  35.838 234.106  1.00 20.00     0.282 C 
HETATM    2  O1  RAP  6544      -5.067  35.852 233.618  1.00 20.00    -0.314 OA
HETATM    3  O2  RAP  6544      -6.602  36.232 235.253  1.00 20.00    -0.263 OA
HETATM    4  C2  RAP  6544      -7.579  35.388 233.241  1.00 20.00     0.187 C 
HETATM    5  C3  RAP  6544      -8.520  34.484 234.023  1.00 20.00     0.035 C 
HETATM    6  C4  RAP  6544      -7.983  33.074 234.227  1.00 20.00     0.004 C 
HETATM    7  C5  RAP  6544      -7.642  32.497 232.865  1.00 20.00     0.020 C 
HETATM    8  C6  RAP  6544      -6.638  33.354 232.159  1.00 20.00     0.127 C 
HETATM    9  N7  RAP  6544      -7.224  34.694 231.999  1.00 20.00    -0.331 N 
HETATM   10  C8  RAP  6544      -7.271  35.339 230.823  1.00 20.00     0.296 C 
HETATM   11  O3  RAP  6544      -7.698  36.501 230.806  1.00 20.00    -0.264 OA
HETATM   12  C9  RAP  6544      -6.933  34.726 229.597  1.00 20.00     0.278 C 
HETATM   13  O4  RAP  6544      -7.800  34.092 228.981  1.00 20.00    -0.281 OA
HETATM   14  C10 RAP  6544      -5.521  34.820 228.989  1.00 20.00     0.238 C 
HETATM   15  O5  RAP  6544      -4.733  33.922 229.736  1.00 20.00    -0.343 OA
HETATM   16  C11 RAP  6544      -4.891  36.269 229.085  1.00 20.00     0.053 C 
HETATM   17  C12 RAP  6544      -3.379  36.244 228.760  1.00 20.00     0.013 C 
HETATM   18  C13 RAP  6544      -2.681  35.149 229.552  1.00 20.00     0.033 C 
HETATM   19  C14 RAP  6544      -3.382  33.797 229.471  1.00 20.00     0.128 C 
HETATM   20  C15 RAP  6544      -2.855  32.880 230.560  1.00 20.00     0.068 C 
HETATM   21  C16 RAP  6544      -1.423  32.381 230.400  1.00 20.00     0.152 C 
HETATM   22  C17 RAP  6544      -1.009  31.509 231.566  1.00 20.00    -0.055 C 
HETATM   23  C18 RAP  6544      -0.058  31.950 232.379  1.00 20.00     0.005 C 
HETATM   24  C19 RAP  6544       0.430  31.234 233.565  1.00 20.00     0.000 C 
HETATM   25  C20 RAP  6544       1.424  31.755 234.270  1.00 20.00    -0.000 C 
HETATM   26  C21 RAP  6544       1.884  31.130 235.524  1.00 20.00    -0.004 C 
HETATM   27  C22 RAP  6544       2.725  31.739 236.337  1.00 20.00    -0.022 C 
HETATM   28  C23 RAP  6544       3.146  31.197 237.687  1.00 20.00     0.005 C 
HETATM   29  C24 RAP  6544       2.811  32.269 238.709  1.00 20.00     0.020 C 
HETATM   30  C25 RAP  6544       1.391  32.804 238.714  1.00 20.00     0.055 C 
HETATM   31  C26 RAP  6544       1.324  34.155 239.413  1.00 20.00     0.162 C 
HETATM   32  O8  RAP  6544       1.181  34.241 240.631  1.00 20.00    -0.295 OA
HETATM   33  C27 RAP  6544       1.433  35.391 238.527  1.00 20.00     0.223 C 
HETATM   34  C28 RAP  6544       0.075  35.818 237.883  1.00 20.00     0.183 C 
HETATM   35  C29 RAP  6544      -0.289  35.013 236.621  1.00 20.00    -0.056 C 
HETATM   36  C30 RAP  6544      -1.292  34.136 236.581  1.00 20.00    -0.010 C 
HETATM   37  C31 RAP  6544      -1.811  33.291 235.408  1.00 20.00     0.074 C 
HETATM   38  C32 RAP  6544      -3.098  33.910 234.862  1.00 20.00     0.136 C 
HETATM   39  O11 RAP  6544      -4.211  33.439 235.114  1.00 20.00    -0.297 OA
HETATM   40  C33 RAP  6544      -2.921  35.178 234.034  1.00 20.00     0.112 C 
HETATM   41  C34 RAP  6544      -3.962  36.229 234.362  1.00 20.00     0.142 C 
HETATM   42  C43 RAP  6544      -5.614  37.365 228.250  1.00 20.00     0.016 C 
HETATM   43  C44 RAP  6544      -1.731  30.155 231.676  1.00 20.00     0.046 C 
HETATM   44  C45 RAP  6544       4.634  30.879 237.707  1.00 20.00     0.014 C 
HETATM   45  C46 RAP  6544       0.415  31.811 239.351  1.00 20.00     0.018 C 
HETATM   46  C47 RAP  6544       0.602  35.293 235.425  1.00 20.00     0.046 C 
HETATM   47  C48 RAP  6544      -2.092  31.865 235.909  1.00 20.00     0.022 C 
ENDROOT
BRANCH  41  48
HETATM   48  C35 RAP  6544      -3.674  37.693 233.976  1.00 20.00     0.012 C 
HETATM   49  C49 RAP  6544      -4.494  38.143 232.801  1.00 20.00     0.012 C 
BRANCH  48  50
HETATM   50  C36 RAP  6544      -2.189  37.940 233.717  1.00 20.00     0.011 C 
BRANCH  50  51
HETATM   51  C37 RAP  6544      -1.656  37.614 232.321  1.00 20.00    -0.012 C 
HETATM   52  C42 RAP  6544      -0.365  36.798 232.286  1.00 20.00     0.007 C 
HETATM   53  C41 RAP  6544       0.079  36.470 230.866  1.00 20.00     0.035 C 
HETATM   54  C40 RAP  6544       0.202  37.752 230.019  1.00 20.00     0.147 C 
HETATM   55  C39 RAP  6544      -1.088  38.642 230.053  1.00 20.00     0.150 C 
HETATM   56  C38 RAP  6544      -1.505  38.902 231.502  1.00 20.00     0.039 C 
BRANCH  54  57
HETATM   57  O13 RAP  6544       0.485  37.392 228.667  1.00 20.00    -0.393 OA
ATOM     58  H13 RAP  6544       1.426  37.374 228.541  1.00  0.00     0.210 HD
ENDBRANCH  54  57
BRANCH  55  59
HETATM   59  O12 RAP  6544      -0.831  39.899 229.481  1.00 20.00    -0.388 OA
HETATM   60  C52 RAP  6544      -1.392  40.998 230.112  1.00 20.00     0.202 C 
ENDBRANCH  55  59
ENDBRANCH  50  51
ENDBRANCH  48  50
ENDBRANCH  41  48
BRANCH  34  61
HETATM   61  O10 RAP  6544      -0.946  35.650 238.877  1.00 20.00    -0.388 OA
ATOM     62  H10 RAP  6544      -1.447  36.456 238.913  1.00  0.00     0.210 HD
ENDBRANCH  34  61
BRANCH  33  63
HETATM   63  O9  RAP  6544       1.862  36.471 239.313  1.00 20.00    -0.380 OA
HETATM   64  C51 RAP  6544       2.029  37.670 238.640  1.00 20.00     0.202 C 
ENDBRANCH  33  63
BRANCH  14  65
HETATM   65  O6  RAP  6544      -5.584  34.431 227.614  1.00 20.00    -0.359 OA
ATOM     66  H6  RAP  6544      -6.313  34.881 227.203  1.00  0.00     0.213 HD
ENDBRANCH  14  65
BRANCH  21  67
HETATM   67  O7  RAP  6544      -1.359  31.641 229.222  1.00 20.00    -0.386 OA
HETATM   68  C50 RAP  6544      -0.246  31.859 228.415  1.00 20.00     0.202 C 
ENDBRANCH  21  67
TORSDOF 9
ENDMDL
MODEL 6
REMARK VINA RESULT:      -7.2      4.521     10.329
REMARK  9 active torsions:
REMARK  status: ('A' for Active; 'I' for Inactive)
REMARK    1  A    between atoms: C10_14  and  O6_16 
REMARK    2  A    between atoms: C16_23  and  O7_24 
REMARK    3  A    between atoms: C27_36  and  O9_37 
REMARK    4  A    between atoms: C28_38  and  O10_39 
REMARK    5  A    between atoms: C34_47  and  C35_48 
REMARK    6  A    between atoms: C35_48  and  C36_49 
REMARK    7  A    between atoms: C36_49  and  C37_50 
REMARK    8  A    between atoms: C39_52  and  O12_53 
REMARK    9  A    between atoms: C40_54  and  O13_55 
ROOT
HETATM    1  C1  RAP  6544       1.132  33.194 235.455  1.00 20.00     0.282 C 
HETATM    2  O1  RAP  6544       0.099  33.774 234.668  1.00 20.00    -0.314 OA
HETATM    3  O2  RAP  6544       2.264  33.148 234.978  1.00 20.00    -0.263 OA
HETATM    4  C2  RAP  6544       0.881  32.671 236.868  1.00 20.00     0.187 C 
HETATM    5  C3  RAP  6544       1.560  31.327 237.084  1.00 20.00     0.035 C 
HETATM    6  C4  RAP  6544       0.847  30.166 236.405  1.00 20.00     0.004 C 
HETATM    7  C5  RAP  6544      -0.596  30.156 236.877  1.00 20.00     0.020 C 
HETATM    8  C6  RAP  6544      -1.269  31.455 236.561  1.00 20.00     0.127 C 
HETATM    9  N7  RAP  6544      -0.528  32.525 237.248  1.00 20.00    -0.331 N 
HETATM   10  C8  RAP  6544      -1.119  33.438 238.035  1.00 20.00     0.296 C 
HETATM   11  O3  RAP  6544      -0.424  34.355 238.493  1.00 20.00    -0.264 OA
HETATM   12  C9  RAP  6544      -2.472  33.355 238.427  1.00 20.00     0.278 C 
HETATM   13  O4  RAP  6544      -2.770  32.690 239.428  1.00 20.00    -0.281 OA
HETATM   14  C10 RAP  6544      -3.599  34.066 237.656  1.00 20.00     0.238 C 
HETATM   15  O5  RAP  6544      -3.813  33.286 236.502  1.00 20.00    -0.343 OA
HETATM   16  C11 RAP  6544      -3.230  35.544 237.223  1.00 20.00     0.053 C 
HETATM   17  C12 RAP  6544      -4.245  36.096 236.196  1.00 20.00     0.013 C 
HETATM   18  C13 RAP  6544      -4.462  35.097 235.070  1.00 20.00     0.033 C 
HETATM   19  C14 RAP  6544      -4.744  33.679 235.560  1.00 20.00     0.128 C 
HETATM   20  C15 RAP  6544      -4.576  32.698 234.413  1.00 20.00     0.068 C 
HETATM   21  C16 RAP  6544      -5.626  32.750 233.310  1.00 20.00     0.152 C 
HETATM   22  C17 RAP  6544      -5.324  31.751 232.213  1.00 20.00    -0.055 C 
HETATM   23  C18 RAP  6544      -5.003  32.210 231.011  1.00 20.00     0.005 C 
HETATM   24  C19 RAP  6544      -4.656  31.368 229.857  1.00 20.00     0.000 C 
HETATM   25  C20 RAP  6544      -4.404  31.946 228.691  1.00 20.00    -0.000 C 
HETATM   26  C21 RAP  6544      -3.953  31.158 227.528  1.00 20.00    -0.004 C 
HETATM   27  C22 RAP  6544      -3.505  31.733 226.429  1.00 20.00    -0.022 C 
HETATM   28  C23 RAP  6544      -2.928  30.980 225.250  1.00 20.00     0.005 C 
HETATM   29  C24 RAP  6544      -1.535  31.538 225.016  1.00 20.00     0.020 C 
HETATM   30  C25 RAP  6544      -0.592  31.569 226.204  1.00 20.00     0.055 C 
HETATM   31  C26 RAP  6544       0.541  32.559 225.971  1.00 20.00     0.162 C 
HETATM   32  O8  RAP  6544       1.567  32.231 225.379  1.00 20.00    -0.295 OA
HETATM   33  C27 RAP  6544       0.341  33.969 226.516  1.00 20.00     0.223 C 
HETATM   34  C28 RAP  6544       0.719  34.114 228.025  1.00 20.00     0.183 C 
HETATM   35  C29 RAP  6544      -0.391  33.646 228.985  1.00 20.00    -0.056 C 
HETATM   36  C30 RAP  6544      -0.289  32.549 229.735  1.00 20.00    -0.010 C 
HETATM   37  C31 RAP  6544      -1.270  31.969 230.765  1.00 20.00     0.074 C 
HETATM   38  C32 RAP  6544      -0.774  32.280 232.177  1.00 20.00     0.136 C 
HETATM   39  O11 RAP  6544      -0.224  31.429 232.883  1.00 20.00    -0.297 OA
HETATM   40  C33 RAP  6544      -0.950  33.723 232.635  1.00 20.00     0.112 C 
HETATM   41  C34 RAP  6544       0.265  34.244 233.377  1.00 20.00     0.142 C 
HETATM   42  C43 RAP  6544      -3.032  36.549 238.395  1.00 20.00     0.016 C 
HETATM   43  C44 RAP  6544      -5.452  30.269 232.606  1.00 20.00     0.046 C 
HETATM   44  C45 RAP  6544      -3.794  31.158 224.012  1.00 20.00     0.014 C 
HETATM   45  C46 RAP  6544      -0.042  30.176 226.527  1.00 20.00     0.018 C 
HETATM   46  C47 RAP  6544      -1.622  34.533 228.996  1.00 20.00     0.046 C 
HETATM   47  C48 RAP  6544      -1.355  30.447 230.568  1.00 20.00     0.022 C 
ENDROOT
BRANCH  41  48
HETATM   48  C35 RAP  6544       0.449  35.770 233.504  1.00 20.00     0.012 C 
HETATM   49  C49 RAP  6544       0.748  36.417 232.182  1.00 20.00     0.012 C 
BRANCH  48  50
HETATM   50  C36 RAP  6544       1.515  36.138 234.533  1.00 20.00     0.011 C 
BRANCH  50  51
HETATM   51  C37 RAP  6544       1.064  36.947 235.751  1.00 20.00    -0.012 C 
HETATM   52  C42 RAP  6544       0.935  38.453 235.526  1.00 20.00     0.007 C 
HETATM   53  C41 RAP  6544       0.437  39.186 236.764  1.00 20.00     0.035 C 
HETATM   54  C40 RAP  6544       1.328  38.876 237.983  1.00 20.00     0.147 C 
HETATM   55  C39 RAP  6544       1.520  37.339 238.233  1.00 20.00     0.150 C 
HETATM   56  C38 RAP  6544       1.981  36.655 236.945  1.00 20.00     0.039 C 
BRANCH  54  57
HETATM   57  O13 RAP  6544       0.751  39.469 239.146  1.00 20.00    -0.393 OA
ATOM     58  H13 RAP  6544       0.328  38.792 239.661  1.00  0.00     0.210 HD
ENDBRANCH  54  57
BRANCH  55  59
HETATM   59  O12 RAP  6544       2.530  37.122 239.185  1.00 20.00    -0.388 OA
HETATM   60  C52 RAP  6544       3.776  37.663 238.907  1.00 20.00     0.202 C 
ENDBRANCH  55  59
ENDBRANCH  50  51
ENDBRANCH  48  50
ENDBRANCH  41  48
BRANCH  34  61
HETATM   61  O10 RAP  6544       1.910  33.345 228.248  1.00 20.00    -0.388 OA
ATOM     62  H10 RAP  6544       2.523  33.897 228.718  1.00  0.00     0.210 HD
ENDBRANCH  34  61
BRANCH  33  63
HETATM   63  O9  RAP  6544       1.176  34.846 225.807  1.00 20.00    -0.380 OA
HETATM   64  C51 RAP  6544       0.637  35.377 224.646  1.00 20.00     0.202 C 
ENDBRANCH  33  63
BRANCH  14  65
HETATM   65  O6  RAP  6544      -4.769  34.102 238.479  1.00 20.00    -0.359 OA
ATOM     66  H6  RAP  6544      -4.999  33.213 238.721  1.00  0.00     0.213 HD
ENDBRANCH  14  65
BRANCH  21  67
HETATM   67  O7  RAP  6544      -6.860  32.451 233.882  1.00 20.00    -0.386 OA
HETATM   68  C50 RAP  6544      -7.908  33.315 233.578  1.00 20.00     0.202 C 
ENDBRANCH  21  67
TORSDOF 9
ENDMDL
MODEL 7
REMARK VINA RESULT:      -7.1      2.639      7.056
REMARK  9 active torsions:
REMARK  status: ('A' for Active; 'I' for Inactive)
REMARK    1  A    between atoms: C10_14  and  O6_16 
REMARK    2  A    between atoms: C16_23  and  O7_24 
REMARK    3  A    between atoms: C27_36  and  O9_37 
REMARK    4  A    between atoms: C28_38  and  O10_39 
REMARK    5  A    between atoms: C34_47  and  C35_48 
REMARK    6  A    between atoms: C35_48  and  C36_49 
REMARK    7  A    between atoms: C36_49  and  C37_50 
REMARK    8  A    between atoms: C39_52  and  O12_53 
REMARK    9  A    between atoms: C40_54  and  O13_55 
ROOT
HETATM    1  C1  RAP  6544      -1.475  31.669 228.253  1.00 20.00     0.282 C 
HETATM    2  O1  RAP  6544      -2.273  32.564 229.017  1.00 20.00    -0.314 OA
HETATM    3  O2  RAP  6544      -0.939  30.730 228.838  1.00 20.00    -0.263 OA
HETATM    4  C2  RAP  6544      -1.304  31.820 226.742  1.00 20.00     0.187 C 
HETATM    5  C3  RAP  6544       0.147  31.618 226.332  1.00 20.00     0.035 C 
HETATM    6  C4  RAP  6544       1.046  32.800 226.667  1.00 20.00     0.004 C 
HETATM    7  C5  RAP  6544       0.446  34.044 226.038  1.00 20.00     0.020 C 
HETATM    8  C6  RAP  6544      -0.947  34.274 226.537  1.00 20.00     0.127 C 
HETATM    9  N7  RAP  6544      -1.754  33.097 226.178  1.00 20.00    -0.331 N 
HETATM   10  C8  RAP  6544      -2.929  33.180 225.535  1.00 20.00     0.296 C 
HETATM   11  O3  RAP  6544      -3.579  32.141 225.362  1.00 20.00    -0.264 OA
HETATM   12  C9  RAP  6544      -3.417  34.383 224.979  1.00 20.00     0.278 C 
HETATM   13  O4  RAP  6544      -3.071  34.701 223.835  1.00 20.00    -0.281 OA
HETATM   14  C10 RAP  6544      -4.372  35.317 225.745  1.00 20.00     0.238 C 
HETATM   15  O5  RAP  6544      -3.563  35.996 226.678  1.00 20.00    -0.343 OA
HETATM   16  C11 RAP  6544      -5.522  34.547 226.515  1.00 20.00     0.053 C 
HETATM   17  C12 RAP  6544      -6.251  35.480 227.509  1.00 20.00     0.013 C 
HETATM   18  C13 RAP  6544      -5.246  36.232 228.369  1.00 20.00     0.033 C 
HETATM   19  C14 RAP  6544      -4.129  36.890 227.566  1.00 20.00     0.128 C 
HETATM   20  C15 RAP  6544      -2.994  37.285 228.496  1.00 20.00     0.068 C 
HETATM   21  C16 RAP  6544      -3.267  38.438 229.455  1.00 20.00     0.152 C 
HETATM   22  C17 RAP  6544      -2.074  38.706 230.348  1.00 20.00    -0.055 C 
HETATM   23  C18 RAP  6544      -2.192  38.474 231.648  1.00 20.00     0.005 C 
HETATM   24  C19 RAP  6544      -1.118  38.657 232.634  1.00 20.00     0.000 C 
HETATM   25  C20 RAP  6544      -1.376  38.441 233.916  1.00 20.00    -0.000 C 
HETATM   26  C21 RAP  6544      -0.311  38.513 234.934  1.00 20.00    -0.004 C 
HETATM   27  C22 RAP  6544      -0.504  38.104 236.174  1.00 20.00    -0.022 C 
HETATM   28  C23 RAP  6544       0.579  38.051 237.230  1.00 20.00     0.005 C 
HETATM   29  C24 RAP  6544       0.623  36.619 237.735  1.00 20.00     0.020 C 
HETATM   30  C25 RAP  6544       0.767  35.521 236.697  1.00 20.00     0.055 C 
HETATM   31  C26 RAP  6544       0.319  34.181 237.262  1.00 20.00     0.162 C 
HETATM   32  O8  RAP  6544       1.091  33.458 237.888  1.00 20.00    -0.295 OA
HETATM   33  C27 RAP  6544      -1.129  33.777 237.003  1.00 20.00     0.223 C 
HETATM   34  C28 RAP  6544      -1.348  33.102 235.611  1.00 20.00     0.183 C 
HETATM   35  C29 RAP  6544      -1.479  34.108 234.452  1.00 20.00    -0.056 C 
HETATM   36  C30 RAP  6544      -0.551  34.253 233.507  1.00 20.00    -0.010 C 
HETATM   37  C31 RAP  6544      -0.542  35.166 232.272  1.00 20.00     0.074 C 
HETATM   38  C32 RAP  6544      -0.855  34.343 231.023  1.00 20.00     0.136 C 
HETATM   39  O11 RAP  6544       0.023  34.000 230.225  1.00 20.00    -0.297 OA
HETATM   40  C33 RAP  6544      -2.311  33.922 230.858  1.00 20.00     0.112 C 
HETATM   41  C34 RAP  6544      -2.446  32.488 230.388  1.00 20.00     0.142 C 
HETATM   42  C43 RAP  6544      -6.545  33.803 225.609  1.00 20.00     0.016 C 
HETATM   43  C44 RAP  6544      -0.825  39.262 229.643  1.00 20.00     0.046 C 
HETATM   44  C45 RAP  6544       0.279  39.015 238.368  1.00 20.00     0.014 C 
HETATM   45  C46 RAP  6544       2.198  35.436 236.159  1.00 20.00     0.018 C 
HETATM   46  C47 RAP  6544      -2.753  34.933 234.483  1.00 20.00     0.046 C 
HETATM   47  C48 RAP  6544       0.850  35.806 232.137  1.00 20.00     0.022 C 
ENDROOT
BRANCH  41  48
HETATM   48  C35 RAP  6544      -3.793  31.769 230.604  1.00 20.00     0.012 C 
HETATM   49  C49 RAP  6544      -3.660  30.275 230.514  1.00 20.00     0.012 C 
BRANCH  48  50
HETATM   50  C36 RAP  6544      -4.873  32.268 229.647  1.00 20.00     0.011 C 
BRANCH  50  51
HETATM   51  C37 RAP  6544      -6.204  32.709 230.258  1.00 20.00    -0.012 C 
HETATM   52  C42 RAP  6544      -7.371  32.822 229.278  1.00 20.00     0.007 C 
HETATM   53  C41 RAP  6544      -8.671  33.217 229.964  1.00 20.00     0.035 C 
HETATM   54  C40 RAP  6544      -8.494  34.515 230.776  1.00 20.00     0.147 C 
HETATM   55  C39 RAP  6544      -7.284  34.460 231.773  1.00 20.00     0.150 C 
HETATM   56  C38 RAP  6544      -6.018  34.019 231.033  1.00 20.00     0.039 C 
BRANCH  54  57
HETATM   57  O13 RAP  6544      -9.690  34.774 231.510  1.00 20.00    -0.393 OA
ATOM     58  H13 RAP  6544      -9.473  35.263 232.295  1.00  0.00     0.210 HD
ENDBRANCH  54  57
BRANCH  55  59
HETATM   59  O12 RAP  6544      -7.018  35.738 232.291  1.00 20.00    -0.388 OA
HETATM   60  C52 RAP  6544      -5.705  36.176 232.228  1.00 20.00     0.202 C 
ENDBRANCH  55  59
ENDBRANCH  50  51
ENDBRANCH  48  50
ENDBRANCH  41  48
BRANCH  34  61
HETATM   61  O10 RAP  6544      -0.234  32.230 235.374  1.00 20.00    -0.388 OA
ATOM     62  H10 RAP  6544       0.492  32.545 235.899  1.00  0.00     0.210 HD
ENDBRANCH  34  61
BRANCH  33  63
HETATM   63  O9  RAP  6544      -1.513  32.838 237.971  1.00 20.00    -0.380 OA
HETATM   64  C51 RAP  6544      -2.801  32.343 237.845  1.00 20.00     0.202 C 
ENDBRANCH  33  63
BRANCH  14  65
HETATM   65  O6  RAP  6544      -4.966  36.230 224.817  1.00 20.00    -0.359 OA
ATOM     66  H6  RAP  6544      -5.655  36.710 225.259  1.00  0.00     0.213 HD
ENDBRANCH  14  65
BRANCH  21  67
HETATM   67  O7  RAP  6544      -3.540  39.571 228.694  1.00 20.00    -0.386 OA
HETATM   68  C50 RAP  6544      -4.263  40.580 229.324  1.00 20.00     0.202 C 
ENDBRANCH  21  67
TORSDOF 9
ENDMDL
MODEL 8
REMARK VINA RESULT:      -7.0      2.987      8.795
REMARK  9 active torsions:
REMARK  status: ('A' for Active; 'I' for Inactive)
REMARK    1  A    between atoms: C10_14  and  O6_16 
REMARK    2  A    between atoms: C16_23  and  O7_24 
REMARK    3  A    between atoms: C27_36  and  O9_37 
REMARK    4  A    between atoms: C28_38  and  O10_39 
REMARK    5  A    between atoms: C34_47  and  C35_48 
REMARK    6  A    between atoms: C35_48  and  C36_49 
REMARK    7  A    between atoms: C36_49  and  C37_50 
REMARK    8  A    between atoms: C39_52  and  O12_53 
REMARK    9  A    between atoms: C40_54  and  O13_55 
ROOT
HETATM    1  C1  RAP  6544      -0.112  36.492 232.661  1.00 20.00     0.282 C 
HETATM    2  O1  RAP  6544      -1.185  36.334 231.742  1.00 20.00    -0.314 OA
HETATM    3  O2  RAP  6544       0.960  36.913 232.230  1.00 20.00    -0.263 OA
HETATM    4  C2  RAP  6544      -0.267  36.194 234.152  1.00 20.00     0.187 C 
HETATM    5  C3  RAP  6544       0.930  35.420 234.684  1.00 20.00     0.035 C 
HETATM    6  C4  RAP  6544       0.940  33.954 234.275  1.00 20.00     0.004 C 
HETATM    7  C5  RAP  6544      -0.375  33.333 234.708  1.00 20.00     0.020 C 
HETATM    8  C6  RAP  6544      -1.534  34.052 234.089  1.00 20.00     0.127 C 
HETATM    9  N7  RAP  6544      -1.478  35.456 234.527  1.00 20.00    -0.331 N 
HETATM   10  C8  RAP  6544      -2.523  36.097 235.072  1.00 20.00     0.296 C 
HETATM   11  O3  RAP  6544      -2.407  37.304 235.322  1.00 20.00    -0.264 OA
HETATM   12  C9  RAP  6544      -3.717  35.442 235.446  1.00 20.00     0.278 C 
HETATM   13  O4  RAP  6544      -3.793  34.922 236.566  1.00 20.00    -0.281 OA
HETATM   14  C10 RAP  6544      -4.936  35.352 234.510  1.00 20.00     0.238 C 
HETATM   15  O5  RAP  6544      -4.608  34.363 233.562  1.00 20.00    -0.343 OA
HETATM   16  C11 RAP  6544      -5.253  36.709 233.758  1.00 20.00     0.053 C 
HETATM   17  C12 RAP  6544      -6.267  36.490 232.612  1.00 20.00     0.013 C 
HETATM   18  C13 RAP  6544      -5.842  35.317 231.740  1.00 20.00     0.033 C 
HETATM   19  C14 RAP  6544      -5.485  34.065 232.536  1.00 20.00     0.128 C 
HETATM   20  C15 RAP  6544      -4.729  33.092 231.648  1.00 20.00     0.068 C 
HETATM   21  C16 RAP  6544      -5.530  32.414 230.542  1.00 20.00     0.152 C 
HETATM   22  C17 RAP  6544      -4.655  31.500 229.710  1.00 20.00    -0.055 C 
HETATM   23  C18 RAP  6544      -4.436  31.819 228.441  1.00 20.00     0.005 C 
HETATM   24  C19 RAP  6544      -3.589  31.050 227.518  1.00 20.00     0.000 C 
HETATM   25  C20 RAP  6544      -3.491  31.443 226.255  1.00 20.00    -0.000 C 
HETATM   26  C21 RAP  6544      -2.578  30.768 225.313  1.00 20.00    -0.004 C 
HETATM   27  C22 RAP  6544      -2.315  31.267 224.121  1.00 20.00    -0.022 C 
HETATM   28  C23 RAP  6544      -1.306  30.681 223.157  1.00 20.00     0.005 C 
HETATM   29  C24 RAP  6544      -0.322  31.790 222.830  1.00 20.00     0.020 C 
HETATM   30  C25 RAP  6544       0.334  32.503 223.997  1.00 20.00     0.055 C 
HETATM   31  C26 RAP  6544       0.888  33.853 223.565  1.00 20.00     0.162 C 
HETATM   32  O8  RAP  6544       2.014  33.961 223.085  1.00 20.00    -0.295 OA
HETATM   33  C27 RAP  6544      -0.019  35.062 223.768  1.00 20.00     0.223 C 
HETATM   34  C28 RAP  6544       0.049  35.657 225.212  1.00 20.00     0.183 C 
HETATM   35  C29 RAP  6544      -0.823  34.901 226.232  1.00 20.00    -0.056 C 
HETATM   36  C30 RAP  6544      -0.315  34.159 227.215  1.00 20.00    -0.010 C 
HETATM   37  C31 RAP  6544      -1.031  33.384 228.331  1.00 20.00     0.074 C 
HETATM   38  C32 RAP  6544      -0.926  34.160 229.643  1.00 20.00     0.136 C 
HETATM   39  O11 RAP  6544      -0.136  33.836 230.536  1.00 20.00    -0.297 OA
HETATM   40  C33 RAP  6544      -1.817  35.392 229.755  1.00 20.00     0.112 C 
HETATM   41  C34 RAP  6544      -1.096  36.569 230.381  1.00 20.00     0.142 C 
HETATM   42  C43 RAP  6544      -5.703  37.886 234.672  1.00 20.00     0.016 C 
HETATM   43  C44 RAP  6544      -4.121  30.250 230.429  1.00 20.00     0.046 C 
HETATM   44  C45 RAP  6544      -1.988  30.175 221.894  1.00 20.00     0.014 C 
HETATM   45  C46 RAP  6544       1.428  31.645 224.641  1.00 20.00     0.018 C 
HETATM   46  C47 RAP  6544      -2.317  35.060 226.014  1.00 20.00     0.046 C 
HETATM   47  C48 RAP  6544      -0.365  32.007 228.486  1.00 20.00     0.022 C 
ENDROOT
BRANCH  41  48
HETATM   48  C35 RAP  6544      -1.668  37.983 230.159  1.00 20.00     0.012 C 
HETATM   49  C49 RAP  6544      -3.087  37.950 229.666  1.00 20.00     0.012 C 
BRANCH  48  50
HETATM   50  C36 RAP  6544      -0.796  38.817 229.224  1.00 20.00     0.011 C 
BRANCH  50  51
HETATM   51  C37 RAP  6544      -0.643  40.305 229.547  1.00 20.00    -0.012 C 
HETATM   52  C42 RAP  6544      -1.887  41.160 229.304  1.00 20.00     0.007 C 
HETATM   53  C41 RAP  6544      -1.677  42.617 229.694  1.00 20.00     0.035 C 
HETATM   54  C40 RAP  6544      -0.443  43.205 228.980  1.00 20.00     0.147 C 
HETATM   55  C39 RAP  6544       0.852  42.341 229.171  1.00 20.00     0.150 C 
HETATM   56  C38 RAP  6544       0.566  40.884 228.803  1.00 20.00     0.039 C 
BRANCH  54  57
HETATM   57  O13 RAP  6544      -0.202  44.522 229.474  1.00 20.00    -0.393 OA
ATOM     58  H13 RAP  6544       0.091  44.466 230.376  1.00  0.00     0.210 HD
ENDBRANCH  54  57
BRANCH  55  59
HETATM   59  O12 RAP  6544       1.865  42.781 228.302  1.00 20.00    -0.388 OA
HETATM   60  C52 RAP  6544       3.055  43.186 228.887  1.00 20.00     0.202 C 
ENDBRANCH  55  59
ENDBRANCH  50  51
ENDBRANCH  48  50
ENDBRANCH  41  48
BRANCH  34  61
HETATM   61  O10 RAP  6544       1.422  35.624 225.628  1.00 20.00    -0.388 OA
ATOM     62  H10 RAP  6544       1.755  34.754 225.446  1.00  0.00     0.210 HD
ENDBRANCH  34  61
BRANCH  33  63
HETATM   63  O9  RAP  6544       0.389  36.081 222.894  1.00 20.00    -0.380 OA
HETATM   64  C51 RAP  6544       0.102  35.869 221.556  1.00 20.00     0.202 C 
ENDBRANCH  33  63
BRANCH  14  65
HETATM   65  O6  RAP  6544      -6.080  34.970 235.279  1.00 20.00    -0.359 OA
ATOM     66  H6  RAP  6544      -5.812  34.332 235.930  1.00  0.00     0.213 HD
ENDBRANCH  14  65
BRANCH  21  67
HETATM   67  O7  RAP  6544      -6.540  31.667 231.143  1.00 20.00    -0.386 OA
HETATM   68  C50 RAP  6544      -7.843  31.972 230.762  1.00 20.00     0.202 C 
ENDBRANCH  21  67
TORSDOF 9
ENDMDL
MODEL 9
REMARK VINA RESULT:      -6.9      2.750     10.445
REMARK  9 active torsions:
REMARK  status: ('A' for Active; 'I' for Inactive)
REMARK    1  A    between atoms: C10_14  and  O6_16 
REMARK    2  A    between atoms: C16_23  and  O7_24 
REMARK    3  A    between atoms: C27_36  and  O9_37 
REMARK    4  A    between atoms: C28_38  and  O10_39 
REMARK    5  A    between atoms: C34_47  and  C35_48 
REMARK    6  A    between atoms: C35_48  and  C36_49 
REMARK    7  A    between atoms: C36_49  and  C37_50 
REMARK    8  A    between atoms: C39_52  and  O12_53 
REMARK    9  A    between atoms: C40_54  and  O13_55 
ROOT
HETATM    1  C1  RAP  6544      -4.560  33.853 233.477  1.00 20.00     0.282 C 
HETATM    2  O1  RAP  6544      -3.777  34.294 232.375  1.00 20.00    -0.314 OA
HETATM    3  O2  RAP  6544      -5.336  32.917 233.296  1.00 20.00    -0.263 OA
HETATM    4  C2  RAP  6544      -4.434  34.478 234.866  1.00 20.00     0.187 C 
HETATM    5  C3  RAP  6544      -5.802  34.715 235.487  1.00 20.00     0.035 C 
HETATM    6  C4  RAP  6544      -6.544  35.904 234.893  1.00 20.00     0.004 C 
HETATM    7  C5  RAP  6544      -5.650  37.125 235.008  1.00 20.00     0.020 C 
HETATM    8  C6  RAP  6544      -4.349  36.901 234.301  1.00 20.00     0.127 C 
HETATM    9  N7  RAP  6544      -3.692  35.742 234.926  1.00 20.00    -0.331 N 
HETATM   10  C8  RAP  6544      -2.423  35.766 235.364  1.00 20.00     0.296 C 
HETATM   11  O3  RAP  6544      -1.929  34.713 235.789  1.00 20.00    -0.264 OA
HETATM   12  C9  RAP  6544      -1.658  36.949 235.437  1.00 20.00     0.278 C 
HETATM   13  O4  RAP  6544      -1.739  37.658 236.449  1.00 20.00    -0.281 OA
HETATM   14  C10 RAP  6544      -0.716  37.393 234.303  1.00 20.00     0.238 C 
HETATM   15  O5  RAP  6544      -1.558  37.917 233.302  1.00 20.00    -0.343 OA
HETATM   16  C11 RAP  6544       0.140  36.208 233.696  1.00 20.00     0.053 C 
HETATM   17  C12 RAP  6544       0.822  36.630 232.374  1.00 20.00     0.013 C 
HETATM   18  C13 RAP  6544      -0.185  37.284 231.440  1.00 20.00     0.033 C 
HETATM   19  C14 RAP  6544      -1.022  38.369 232.111  1.00 20.00     0.128 C 
HETATM   20  C15 RAP  6544      -2.225  38.697 231.243  1.00 20.00     0.068 C 
HETATM   21  C16 RAP  6544      -1.945  39.429 229.936  1.00 20.00     0.152 C 
HETATM   22  C17 RAP  6544      -3.219  39.663 229.151  1.00 20.00    -0.055 C 
HETATM   23  C18 RAP  6544      -3.372  39.036 227.993  1.00 20.00     0.005 C 
HETATM   24  C19 RAP  6544      -4.560  39.138 227.134  1.00 20.00     0.000 C 
HETATM   25  C20 RAP  6544      -4.571  38.502 225.971  1.00 20.00    -0.000 C 
HETATM   26  C21 RAP  6544      -5.775  38.489 225.118  1.00 20.00    -0.004 C 
HETATM   27  C22 RAP  6544      -5.873  37.700 224.066  1.00 20.00    -0.022 C 
HETATM   28  C23 RAP  6544      -7.120  37.562 223.220  1.00 20.00     0.005 C 
HETATM   29  C24 RAP  6544      -7.483  36.088 223.217  1.00 20.00     0.020 C 
HETATM   30  C25 RAP  6544      -7.615  35.402 224.564  1.00 20.00     0.055 C 
HETATM   31  C26 RAP  6544      -7.496  33.892 224.417  1.00 20.00     0.162 C 
HETATM   32  O8  RAP  6544      -8.473  33.193 224.156  1.00 20.00    -0.295 OA
HETATM   33  C27 RAP  6544      -6.109  33.291 224.622  1.00 20.00     0.223 C 
HETATM   34  C28 RAP  6544      -5.758  33.029 226.122  1.00 20.00     0.183 C 
HETATM   35  C29 RAP  6544      -5.263  34.283 226.867  1.00 20.00    -0.056 C 
HETATM   36  C30 RAP  6544      -5.974  34.893 227.815  1.00 20.00    -0.010 C 
HETATM   37  C31 RAP  6544      -5.617  36.113 228.678  1.00 20.00     0.074 C 
HETATM   38  C32 RAP  6544      -5.224  35.651 230.081  1.00 20.00     0.136 C 
HETATM   39  O11 RAP  6544      -5.990  35.752 231.044  1.00 20.00    -0.297 OA
HETATM   40  C33 RAP  6544      -3.848  35.005 230.201  1.00 20.00     0.112 C 
HETATM   41  C34 RAP  6544      -3.864  33.779 231.093  1.00 20.00     0.142 C 
HETATM   42  C43 RAP  6544       1.174  35.569 234.668  1.00 20.00     0.016 C 
HETATM   43  C44 RAP  6544      -4.217  40.651 229.779  1.00 20.00     0.046 C 
HETATM   44  C45 RAP  6544      -6.876  38.060 221.803  1.00 20.00     0.014 C 
HETATM   45  C46 RAP  6544      -8.923  35.781 225.265  1.00 20.00     0.018 C 
HETATM   46  C47 RAP  6544      -3.900  34.778 226.420  1.00 20.00     0.046 C 
HETATM   47  C48 RAP  6544      -6.841  37.039 228.760  1.00 20.00     0.022 C 
ENDROOT
BRANCH  41  48
HETATM   48  C35 RAP  6544      -2.710  32.765 230.967  1.00 20.00     0.012 C 
HETATM   49  C49 RAP  6544      -2.917  31.559 231.839  1.00 20.00     0.012 C 
BRANCH  48  50
HETATM   50  C36 RAP  6544      -1.350  33.400 231.245  1.00 20.00     0.011 C 
BRANCH  50  51
HETATM   51  C37 RAP  6544      -0.394  33.558 230.061  1.00 20.00    -0.012 C 
HETATM   52  C42 RAP  6544      -0.792  34.617 229.033  1.00 20.00     0.007 C 
HETATM   53  C41 RAP  6544       0.229  34.752 227.912  1.00 20.00     0.035 C 
HETATM   54  C40 RAP  6544       0.494  33.389 227.241  1.00 20.00     0.147 C 
HETATM   55  C39 RAP  6544       0.871  32.260 228.262  1.00 20.00     0.150 C 
HETATM   56  C38 RAP  6544      -0.169  32.202 229.383  1.00 20.00     0.039 C 
BRANCH  54  57
HETATM   57  O13 RAP  6544       1.551  33.533 226.293  1.00 20.00    -0.393 OA
ATOM     58  H13 RAP  6544       1.180  33.584 225.420  1.00  0.00     0.210 HD
ENDBRANCH  54  57
BRANCH  55  59
HETATM   59  O12 RAP  6544       0.851  31.005 227.632  1.00 20.00    -0.388 OA
HETATM   60  C52 RAP  6544      -0.364  30.590 227.108  1.00 20.00     0.202 C 
ENDBRANCH  55  59
ENDBRANCH  50  51
ENDBRANCH  48  50
ENDBRANCH  41  48
BRANCH  34  61
HETATM   61  O10 RAP  6544      -6.938  32.519 226.759  1.00 20.00    -0.388 OA
ATOM     62  H10 RAP  6544      -7.185  33.136 227.438  1.00  0.00     0.210 HD
ENDBRANCH  34  61
BRANCH  33  63
HETATM   63  O9  RAP  6544      -6.059  32.048 223.974  1.00 20.00    -0.380 OA
HETATM   64  C51 RAP  6544      -4.830  31.408 224.004  1.00 20.00     0.202 C 
ENDBRANCH  33  63
BRANCH  14  65
HETATM   65  O6  RAP  6544       0.172  38.396 234.807  1.00 20.00    -0.359 OA
ATOM     66  H6  RAP  6544       0.494  38.913 234.078  1.00  0.00     0.213 HD
ENDBRANCH  14  65
BRANCH  21  67
HETATM   67  O7  RAP  6544      -1.363  40.655 230.250  1.00 20.00    -0.386 OA
HETATM   68  C50 RAP  6544      -0.532  41.210 229.281  1.00 20.00     0.202 C 
ENDBRANCH  21  67
TORSDOF 9
ENDMDL
