MODEL 1
REMARK VINA RESULT:      -8.1      0.000      0.000
REMARK  4 active torsions:
REMARK  status: ('A' for Active; 'I' for Inactive)
REMARK    1  A    between atoms: C1_2  and  O2_3 
REMARK    2  A    between atoms: C1_2  and  C2_4 
REMARK    3  A    between atoms: C7_9  and  N1_10 
REMARK    4  A    between atoms: N1_10  and  C8_11 
ROOT
ATOM      1  C2  UNK     1       1.749  44.680 228.971  1.00  0.00     0.064 A 
ATOM      2  C3  UNK     1       2.981  44.589 229.628  1.00  0.00     0.020 A 
ATOM      3  C4  UNK     1       3.841  43.521 229.384  1.00  0.00     0.001 A 
ATOM      4  C5  UNK     1       3.493  42.518 228.482  1.00  0.00     0.002 A 
ATOM      5  C6  UNK     1       2.271  42.554 227.800  1.00  0.00     0.030 A 
ATOM      6  C7  UNK     1       1.334  43.590 228.009  1.00  0.00     0.049 A 
ENDROOT
BRANCH   6   7
ATOM      7  N1  UNK     1       0.096  43.722 227.395  1.00  0.00    -0.355 N 
ATOM      8  H6  UNK     1      -0.056  44.423 226.698  1.00  0.00     0.166 HD
BRANCH   7   9
ATOM      9  C8  UNK     1      -0.907  42.878 227.760  1.00  0.00     0.039 A 
ATOM     10  C9  UNK     1      -2.092  42.613 226.875  1.00  0.00    -0.029 A 
ATOM     11  C10 UNK     1      -2.110  43.023 225.419  1.00  0.00     0.051 C 
ATOM     12  C14 UNK     1      -3.261  41.897 227.467  1.00  0.00    -0.054 A 
ATOM     13  C13 UNK     1      -3.227  41.524 228.810  1.00  0.00     0.007 A 
ATOM     14  C15 UNK     1      -4.473  41.564 226.634  1.00  0.00     0.049 C 
ATOM     15  C12 UNK     1      -2.119  41.819 229.606  1.00  0.00     0.003 A 
ATOM     16  C11 UNK     1      -0.996  42.494 229.103  1.00  0.00     0.030 A 
ENDBRANCH   7   9
ENDBRANCH   6   7
BRANCH   1  17
ATOM     17  C1  UNK     1       0.834  45.860 229.280  1.00  0.00     0.178 C 
ATOM     18  O1  UNK     1       0.741  46.798 228.448  1.00  0.00    -0.646 OA
BRANCH  17  19
ATOM     19  O2  UNK     1       0.198  45.909 230.368  1.00  0.00    -0.773 OA
ATOM     20  H1  UNK     1       0.768  45.646 231.081  1.00  0.00     0.167 HD
ENDBRANCH  17  19
ENDBRANCH   1  17
TORSDOF 4
ENDMDL
MODEL 2
REMARK VINA RESULT:      -7.7      0.834      2.069
REMARK  4 active torsions:
REMARK  status: ('A' for Active; 'I' for Inactive)
REMARK    1  A    between atoms: C1_2  and  O2_3 
REMARK    2  A    between atoms: C1_2  and  C2_4 
REMARK    3  A    between atoms: C7_9  and  N1_10 
REMARK    4  A    between atoms: N1_10  and  C8_11 
ROOT
ATOM      1  C2  UNK     1       1.694  44.858 228.634  1.00  0.00     0.064 A 
ATOM      2  C3  UNK     1       2.880  44.444 229.250  1.00  0.00     0.020 A 
ATOM      3  C4  UNK     1       3.390  43.168 229.028  1.00  0.00     0.001 A 
ATOM      4  C5  UNK     1       2.731  42.273 228.189  1.00  0.00     0.002 A 
ATOM      5  C6  UNK     1       1.538  42.630 227.549  1.00  0.00     0.030 A 
ATOM      6  C7  UNK     1       0.943  43.896 227.741  1.00  0.00     0.049 A 
ENDROOT
BRANCH   6   7
ATOM      7  N1  UNK     1      -0.236  44.352 227.165  1.00  0.00    -0.355 N 
ATOM      8  H6  UNK     1      -0.281  45.258 226.743  1.00  0.00     0.166 HD
BRANCH   7   9
ATOM      9  C8  UNK     1      -1.328  43.542 227.187  1.00  0.00     0.039 A 
ATOM     10  C9  UNK     1      -1.700  42.733 228.398  1.00  0.00    -0.029 A 
ATOM     11  C10 UNK     1      -1.072  42.983 229.751  1.00  0.00     0.051 C 
ATOM     12  C14 UNK     1      -2.745  41.677 228.240  1.00  0.00    -0.054 A 
ATOM     13  C13 UNK     1      -3.316  41.461 226.986  1.00  0.00     0.007 A 
ATOM     14  C15 UNK     1      -3.196  40.847 229.414  1.00  0.00     0.049 C 
ATOM     15  C12 UNK     1      -2.918  42.214 225.881  1.00  0.00     0.003 A 
ATOM     16  C11 UNK     1      -1.938  43.214 225.971  1.00  0.00     0.030 A 
ENDBRANCH   7   9
ENDBRANCH   6   7
BRANCH   1  17
ATOM     17  C1  UNK     1       1.165  46.260 228.917  1.00  0.00     0.178 C 
ATOM     18  O1  UNK     1       0.312  46.421 229.827  1.00  0.00    -0.646 OA
BRANCH  17  19
ATOM     19  O2  UNK     1       1.556  47.243 228.232  1.00  0.00    -0.773 OA
ATOM     20  H1  UNK     1       2.493  47.355 228.345  1.00  0.00     0.167 HD
ENDBRANCH  17  19
ENDBRANCH   1  17
TORSDOF 4
ENDMDL
MODEL 3
REMARK VINA RESULT:      -6.9      2.111      5.820
REMARK  4 active torsions:
REMARK  status: ('A' for Active; 'I' for Inactive)
REMARK    1  A    between atoms: C1_2  and  O2_3 
REMARK    2  A    between atoms: C1_2  and  C2_4 
REMARK    3  A    between atoms: C7_9  and  N1_10 
REMARK    4  A    between atoms: N1_10  and  C8_11 
ROOT
ATOM      1  C2  UNK     1      -2.726  42.325 227.505  1.00  0.00     0.064 A 
ATOM      2  C3  UNK     1      -3.725  41.367 227.710  1.00  0.00     0.020 A 
ATOM      3  C4  UNK     1      -3.668  40.501 228.799  1.00  0.00     0.001 A 
ATOM      4  C5  UNK     1      -2.613  40.565 229.706  1.00  0.00     0.002 A 
ATOM      5  C6  UNK     1      -1.582  41.500 229.548  1.00  0.00     0.030 A 
ATOM      6  C7  UNK     1      -1.554  42.397 228.459  1.00  0.00     0.049 A 
ENDROOT
BRANCH   6   7
ATOM      7  N1  UNK     1      -0.584  43.356 228.201  1.00  0.00    -0.355 N 
ATOM      8  H6  UNK     1      -0.833  44.243 227.811  1.00  0.00     0.166 HD
BRANCH   7   9
ATOM      9  C8  UNK     1       0.713  43.065 228.490  1.00  0.00     0.039 A 
ATOM     10  C9  UNK     1       1.472  43.781 229.571  1.00  0.00    -0.029 A 
ATOM     11  C10 UNK     1       0.777  44.649 230.596  1.00  0.00     0.051 C 
ATOM     12  C14 UNK     1       2.952  43.588 229.632  1.00  0.00    -0.054 A 
ATOM     13  C13 UNK     1       3.578  42.783 228.682  1.00  0.00     0.007 A 
ATOM     14  C15 UNK     1       3.779  44.245 230.708  1.00  0.00     0.049 C 
ATOM     15  C12 UNK     1       2.838  42.163 227.673  1.00  0.00     0.003 A 
ATOM     16  C11 UNK     1       1.448  42.312 227.566  1.00  0.00     0.030 A 
ENDBRANCH   7   9
ENDBRANCH   6   7
BRANCH   1  17
ATOM     17  C1  UNK     1      -2.823  43.244 226.292  1.00  0.00     0.178 C 
ATOM     18  O1  UNK     1      -3.897  43.861 226.075  1.00  0.00    -0.646 OA
BRANCH  17  19
ATOM     19  O2  UNK     1      -1.849  43.365 225.501  1.00  0.00    -0.773 OA
ATOM     20  H1  UNK     1      -1.684  44.287 225.341  1.00  0.00     0.167 HD
ENDBRANCH  17  19
ENDBRANCH   1  17
TORSDOF 4
ENDMDL
MODEL 4
REMARK VINA RESULT:      -6.7      2.082      3.211
REMARK  4 active torsions:
REMARK  status: ('A' for Active; 'I' for Inactive)
REMARK    1  A    between atoms: C1_2  and  O2_3 
REMARK    2  A    between atoms: C1_2  and  C2_4 
REMARK    3  A    between atoms: C7_9  and  N1_10 
REMARK    4  A    between atoms: N1_10  and  C8_11 
ROOT
ATOM      1  C2  UNK     1       2.067  43.622 228.462  1.00  0.00     0.064 A 
ATOM      2  C3  UNK     1       2.720  44.593 229.229  1.00  0.00     0.020 A 
ATOM      3  C4  UNK     1       2.135  45.837 229.451  1.00  0.00     0.001 A 
ATOM      4  C5  UNK     1       0.888  46.144 228.913  1.00  0.00     0.002 A 
ATOM      5  C6  UNK     1       0.190  45.213 228.133  1.00  0.00     0.030 A 
ATOM      6  C7  UNK     1       0.725  43.940 227.841  1.00  0.00     0.049 A 
ENDROOT
BRANCH   6   7
ATOM      7  N1  UNK     1       0.127  42.946 227.078  1.00  0.00    -0.355 N 
ATOM      8  H6  UNK     1       0.673  42.376 226.463  1.00  0.00     0.166 HD
BRANCH   7   9
ATOM      9  C8  UNK     1      -1.216  42.762 227.183  1.00  0.00     0.039 A 
ATOM     10  C9  UNK     1      -1.831  41.970 228.302  1.00  0.00    -0.029 A 
ATOM     11  C10 UNK     1      -1.041  41.579 229.532  1.00  0.00     0.051 C 
ATOM     12  C14 UNK     1      -3.272  41.595 228.186  1.00  0.00    -0.054 A 
ATOM     13  C13 UNK     1      -3.986  41.965 227.047  1.00  0.00     0.007 A 
ATOM     14  C15 UNK     1      -3.968  40.830 229.282  1.00  0.00     0.049 C 
ATOM     15  C12 UNK     1      -3.367  42.673 226.015  1.00  0.00     0.003 A 
ATOM     16  C11 UNK     1      -2.016  43.047 226.070  1.00  0.00     0.030 A 
ENDBRANCH   7   9
ENDBRANCH   6   7
BRANCH   1  17
ATOM     17  C1  UNK     1       2.752  42.279 228.233  1.00  0.00     0.178 C 
ATOM     18  O1  UNK     1       3.954  42.138 228.574  1.00  0.00    -0.646 OA
BRANCH  17  19
ATOM     19  O2  UNK     1       2.131  41.328 227.687  1.00  0.00    -0.773 OA
ATOM     20  H1  UNK     1       1.329  41.155 228.167  1.00  0.00     0.167 HD
ENDBRANCH  17  19
ENDBRANCH   1  17
TORSDOF 4
ENDMDL
MODEL 5
REMARK VINA RESULT:      -6.5      9.312     10.460
REMARK  4 active torsions:
REMARK  status: ('A' for Active; 'I' for Inactive)
REMARK    1  A    between atoms: C1_2  and  O2_3 
REMARK    2  A    between atoms: C1_2  and  C2_4 
REMARK    3  A    between atoms: C7_9  and  N1_10 
REMARK    4  A    between atoms: N1_10  and  C8_11 
ROOT
ATOM      1  C2  UNK     1       1.789  38.323 237.865  1.00  0.00     0.064 A 
ATOM      2  C3  UNK     1       2.978  38.378 238.601  1.00  0.00     0.020 A 
ATOM      3  C4  UNK     1       3.828  37.276 238.663  1.00  0.00     0.001 A 
ATOM      4  C5  UNK     1       3.512  36.094 237.998  1.00  0.00     0.002 A 
ATOM      5  C6  UNK     1       2.333  35.980 237.251  1.00  0.00     0.030 A 
ATOM      6  C7  UNK     1       1.408  37.042 237.157  1.00  0.00     0.049 A 
ENDROOT
BRANCH   6   7
ATOM      7  N1  UNK     1       0.211  37.037 236.453  1.00  0.00    -0.355 N 
ATOM      8  H6  UNK     1      -0.654  37.234 236.915  1.00  0.00     0.166 HD
BRANCH   7   9
ATOM      9  C8  UNK     1       0.239  36.760 235.122  1.00  0.00     0.039 A 
ATOM     10  C9  UNK     1      -0.106  35.401 234.581  1.00  0.00    -0.029 A 
ATOM     11  C10 UNK     1      -0.784  34.349 235.432  1.00  0.00     0.051 C 
ATOM     12  C14 UNK     1       0.213  35.115 233.150  1.00  0.00    -0.054 A 
ATOM     13  C13 UNK     1       0.835  36.096 232.378  1.00  0.00     0.007 A 
ATOM     14  C15 UNK     1      -0.132  33.788 232.525  1.00  0.00     0.049 C 
ATOM     15  C12 UNK     1       1.168  37.334 232.930  1.00  0.00     0.003 A 
ATOM     16  C11 UNK     1       0.896  37.654 234.269  1.00  0.00     0.030 A 
ENDBRANCH   7   9
ENDBRANCH   6   7
BRANCH   1  17
ATOM     17  C1  UNK     1       0.883  39.549 237.836  1.00  0.00     0.178 C 
ATOM     18  O1  UNK     1       0.165  39.804 238.837  1.00  0.00    -0.646 OA
BRANCH  17  19
ATOM     19  O2  UNK     1       0.832  40.284 236.814  1.00  0.00    -0.773 OA
ATOM     20  H1  UNK     1       1.698  40.624 236.624  1.00  0.00     0.167 HD
ENDBRANCH  17  19
ENDBRANCH   1  17
TORSDOF 4
ENDMDL
MODEL 6
REMARK VINA RESULT:      -6.2      7.978      9.765
REMARK  4 active torsions:
REMARK  status: ('A' for Active; 'I' for Inactive)
REMARK    1  A    between atoms: C1_2  and  O2_3 
REMARK    2  A    between atoms: C1_2  and  C2_4 
REMARK    3  A    between atoms: C7_9  and  N1_10 
REMARK    4  A    between atoms: N1_10  and  C8_11 
ROOT
ATOM      1  C2  UNK     1      -1.073  37.920 232.072  1.00  0.00     0.064 A 
ATOM      2  C3  UNK     1      -1.000  38.096 230.686  1.00  0.00     0.020 A 
ATOM      3  C4  UNK     1      -0.080  37.380 229.925  1.00  0.00     0.001 A 
ATOM      4  C5  UNK     1       0.792  36.475 230.527  1.00  0.00     0.002 A 
ATOM      5  C6  UNK     1       0.767  36.263 231.910  1.00  0.00     0.030 A 
ATOM      6  C7  UNK     1      -0.120  36.966 232.754  1.00  0.00     0.049 A 
ENDROOT
BRANCH   6   7
ATOM      7  N1  UNK     1      -0.225  36.840 234.133  1.00  0.00    -0.355 N 
ATOM      8  H6  UNK     1      -1.119  36.732 234.569  1.00  0.00     0.166 HD
BRANCH   7   9
ATOM      9  C8  UNK     1       0.912  36.865 234.879  1.00  0.00     0.039 A 
ATOM     10  C9  UNK     1       1.467  35.632 235.534  1.00  0.00    -0.029 A 
ATOM     11  C10 UNK     1       0.980  34.246 235.172  1.00  0.00     0.051 C 
ATOM     12  C14 UNK     1       2.552  35.804 236.545  1.00  0.00    -0.054 A 
ATOM     13  C13 UNK     1       2.992  37.088 236.866  1.00  0.00     0.007 A 
ATOM     14  C15 UNK     1       3.184  34.614 237.220  1.00  0.00     0.049 C 
ATOM     15  C12 UNK     1       2.425  38.210 236.257  1.00  0.00     0.003 A 
ATOM     16  C11 UNK     1       1.401  38.106 235.304  1.00  0.00     0.030 A 
ENDBRANCH   7   9
ENDBRANCH   6   7
BRANCH   1  17
ATOM     17  C1  UNK     1      -2.088  38.736 232.866  1.00  0.00     0.178 C 
ATOM     18  O1  UNK     1      -3.274  38.807 232.455  1.00  0.00    -0.646 OA
BRANCH  17  19
ATOM     19  O2  UNK     1      -1.738  39.354 233.908  1.00  0.00    -0.773 OA
ATOM     20  H1  UNK     1      -1.690  38.746 234.636  1.00  0.00     0.167 HD
ENDBRANCH  17  19
ENDBRANCH   1  17
TORSDOF 4
ENDMDL
MODEL 7
REMARK VINA RESULT:      -6.2      9.304     10.614
REMARK  4 active torsions:
REMARK  status: ('A' for Active; 'I' for Inactive)
REMARK    1  A    between atoms: C1_2  and  O2_3 
REMARK    2  A    between atoms: C1_2  and  C2_4 
REMARK    3  A    between atoms: C7_9  and  N1_10 
REMARK    4  A    between atoms: N1_10  and  C8_11 
ROOT
ATOM      1  C2  UNK     1       2.432  38.174 237.626  1.00  0.00     0.064 A 
ATOM      2  C3  UNK     1       1.948  38.745 238.808  1.00  0.00     0.020 A 
ATOM      3  C4  UNK     1       0.787  39.515 238.804  1.00  0.00     0.001 A 
ATOM      4  C5  UNK     1       0.083  39.736 237.623  1.00  0.00     0.002 A 
ATOM      5  C6  UNK     1       0.524  39.194 236.409  1.00  0.00     0.030 A 
ATOM      6  C7  UNK     1       1.703  38.422 236.325  1.00  0.00     0.049 A 
ENDROOT
BRANCH   6   7
ATOM      7  N1  UNK     1       2.234  37.844 235.179  1.00  0.00    -0.355 N 
ATOM      8  H6  UNK     1       3.191  37.992 234.929  1.00  0.00     0.166 HD
BRANCH   7   9
ATOM      9  C8  UNK     1       1.425  37.072 234.404  1.00  0.00     0.039 A 
ATOM     10  C9  UNK     1       1.051  35.668 234.788  1.00  0.00    -0.029 A 
ATOM     11  C10 UNK     1       1.297  35.127 236.179  1.00  0.00     0.051 C 
ATOM     12  C14 UNK     1       0.392  34.812 233.757  1.00  0.00    -0.054 A 
ATOM     13  C13 UNK     1       0.171  35.327 232.479  1.00  0.00     0.007 A 
ATOM     14  C15 UNK     1      -0.043  33.405 234.075  1.00  0.00     0.049 C 
ATOM     15  C12 UNK     1       0.564  36.627 232.155  1.00  0.00     0.003 A 
ATOM     16  C11 UNK     1       1.191  37.472 233.084  1.00  0.00     0.030 A 
ENDBRANCH   7   9
ENDBRANCH   6   7
BRANCH   1  17
ATOM     17  C1  UNK     1       3.714  37.350 237.676  1.00  0.00     0.178 C 
ATOM     18  O1  UNK     1       3.995  36.717 238.725  1.00  0.00    -0.646 OA
BRANCH  17  19
ATOM     19  O2  UNK     1       4.497  37.323 236.689  1.00  0.00    -0.773 OA
ATOM     20  H1  UNK     1       4.653  38.210 236.384  1.00  0.00     0.167 HD
ENDBRANCH  17  19
ENDBRANCH   1  17
TORSDOF 4
ENDMDL
MODEL 8
REMARK VINA RESULT:      -6.1     10.725     11.804
REMARK  4 active torsions:
REMARK  status: ('A' for Active; 'I' for Inactive)
REMARK    1  A    between atoms: C1_2  and  O2_3 
REMARK    2  A    between atoms: C1_2  and  C2_4 
REMARK    3  A    between atoms: C7_9  and  N1_10 
REMARK    4  A    between atoms: N1_10  and  C8_11 
ROOT
ATOM      1  C2  UNK     1       2.518  38.457 237.898  1.00  0.00     0.064 A 
ATOM      2  C3  UNK     1       3.439  39.283 238.552  1.00  0.00     0.020 A 
ATOM      3  C4  UNK     1       4.101  38.845 239.697  1.00  0.00     0.001 A 
ATOM      4  C5  UNK     1       3.859  37.576 240.218  1.00  0.00     0.002 A 
ATOM      5  C6  UNK     1       2.944  36.709 239.608  1.00  0.00     0.030 A 
ATOM      6  C7  UNK     1       2.216  37.086 238.459  1.00  0.00     0.049 A 
ENDROOT
BRANCH   6   7
ATOM      7  N1  UNK     1       1.284  36.313 237.780  1.00  0.00    -0.355 N 
ATOM      8  H6  UNK     1       0.304  36.480 237.891  1.00  0.00     0.166 HD
BRANCH   7   9
ATOM      9  C8  UNK     1       1.730  35.324 236.960  1.00  0.00     0.039 A 
ATOM     10  C9  UNK     1       0.953  34.870 235.757  1.00  0.00    -0.029 A 
ATOM     11  C10 UNK     1      -0.213  35.666 235.211  1.00  0.00     0.051 C 
ATOM     12  C14 UNK     1       1.382  33.610 235.080  1.00  0.00    -0.054 A 
ATOM     13  C13 UNK     1       2.460  32.889 235.594  1.00  0.00     0.007 A 
ATOM     14  C15 UNK     1       0.673  33.107 233.849  1.00  0.00     0.049 C 
ATOM     15  C12 UNK     1       3.134  33.330 236.735  1.00  0.00     0.003 A 
ATOM     16  C11 UNK     1       2.770  34.504 237.411  1.00  0.00     0.030 A 
ENDBRANCH   7   9
ENDBRANCH   6   7
BRANCH   1  17
ATOM     17  C1  UNK     1       1.807  38.984 236.657  1.00  0.00     0.178 C 
ATOM     18  O1  UNK     1       2.024  38.434 235.547  1.00  0.00    -0.646 OA
BRANCH  17  19
ATOM     19  O2  UNK     1       1.032  39.975 236.734  1.00  0.00    -0.773 OA
ATOM     20  H1  UNK     1       1.274  40.619 236.079  1.00  0.00     0.167 HD
ENDBRANCH  17  19
ENDBRANCH   1  17
TORSDOF 4
ENDMDL
MODEL 9
REMARK VINA RESULT:      -6.1      2.069      2.666
REMARK  4 active torsions:
REMARK  status: ('A' for Active; 'I' for Inactive)
REMARK    1  A    between atoms: C1_2  and  O2_3 
REMARK    2  A    between atoms: C1_2  and  C2_4 
REMARK    3  A    between atoms: C7_9  and  N1_10 
REMARK    4  A    between atoms: N1_10  and  C8_11 
ROOT
ATOM      1  C2  UNK     1       2.580  43.157 228.843  1.00  0.00     0.064 A 
ATOM      2  C3  UNK     1       3.709  43.241 229.666  1.00  0.00     0.020 A 
ATOM      3  C4  UNK     1       3.650  43.907 230.888  1.00  0.00     0.001 A 
ATOM      4  C5  UNK     1       2.469  44.507 231.316  1.00  0.00     0.002 A 
ATOM      5  C6  UNK     1       1.310  44.459 230.531  1.00  0.00     0.030 A 
ATOM      6  C7  UNK     1       1.293  43.824 229.271  1.00  0.00     0.049 A 
ENDROOT
BRANCH   6   7
ATOM      7  N1  UNK     1       0.208  43.722 228.410  1.00  0.00    -0.355 N 
ATOM      8  H6  UNK     1       0.067  44.396 227.684  1.00  0.00     0.166 HD
BRANCH   7   9
ATOM      9  C8  UNK     1      -0.660  42.688 228.574  1.00  0.00     0.039 A 
ATOM     10  C9  UNK     1      -1.901  42.544 227.739  1.00  0.00    -0.029 A 
ATOM     11  C10 UNK     1      -2.117  43.356 226.481  1.00  0.00     0.051 C 
ATOM     12  C14 UNK     1      -2.921  41.541 228.168  1.00  0.00    -0.054 A 
ATOM     13  C13 UNK     1      -2.706  40.799 229.329  1.00  0.00     0.007 A 
ATOM     14  C15 UNK     1      -4.176  41.315 227.365  1.00  0.00     0.049 C 
ATOM     15  C12 UNK     1      -1.554  40.988 230.094  1.00  0.00     0.003 A 
ATOM     16  C11 UNK     1      -0.565  41.919 229.740  1.00  0.00     0.030 A 
ENDBRANCH   7   9
ENDBRANCH   6   7
BRANCH   1  17
ATOM     17  C1  UNK     1       2.694  42.429 227.507  1.00  0.00     0.178 C 
ATOM     18  O1  UNK     1       2.861  41.183 227.501  1.00  0.00    -0.646 OA
BRANCH  17  19
ATOM     19  O2  UNK     1       2.649  43.070 226.423  1.00  0.00    -0.773 OA
ATOM     20  H1  UNK     1       2.924  43.967 226.572  1.00  0.00     0.167 HD
ENDBRANCH  17  19
ENDBRANCH   1  17
TORSDOF 4
ENDMDL
