MODEL 1
REMARK VINA RESULT:      -7.2      0.000      0.000
REMARK  9 active torsions:
REMARK  status: ('A' for Active; 'I' for Inactive)
REMARK    1  A    between atoms: C2_3  and  C3_4 
REMARK    2  A    between atoms: C3_4  and  O1_5 
REMARK    3  A    between atoms: C4_8  and  C5_9 
REMARK    4  A    between atoms: C5_9  and  C6_10 
REMARK    5  A    between atoms: C6_10  and  C7_11 
REMARK    6  A    between atoms: N2_13  and  C9_14 
REMARK    7  A    between atoms: C9_14  and  C10_15 
REMARK    8  A    between atoms: C15_20  and  C16_21 
REMARK    9  A    between atoms: C21_26  and  C22_27 
ROOT
ATOM      1  C10 UNK     1       0.271  36.587 235.167  1.00  0.00    -0.040 C 
ATOM      2  C11 UNK     1       1.175  37.548 234.390  1.00  0.00     0.010 C 
ATOM      3  C12 UNK     1       1.218  37.387 232.859  1.00  0.00     0.013 C 
ATOM      4  C13 UNK     1      -0.792  35.735 234.551  1.00  0.00     0.010 C 
ATOM      5  C14 UNK     1      -0.729  35.574 233.077  1.00  0.00     0.013 C 
ATOM      6  C15 UNK     1       0.342  36.263 232.258  1.00  0.00    -0.025 C 
ENDROOT
BRANCH   1   7
ATOM      7  C9  UNK     1      -0.056  36.767 236.641  1.00  0.00     0.169 C 
BRANCH   7   8
ATOM      8  N2  UNK     1       1.218  36.736 237.237  1.00  0.00    -0.331 N 
ATOM      9  C2  UNK     1       1.784  37.967 237.673  1.00  0.00     0.075 C 
ATOM     10  C1  UNK     1       3.171  37.480 238.215  1.00  0.00     0.130 C 
ATOM     11 Cl1  UNK     1       4.275  38.415 239.219  1.00  0.00    -0.062 Cl
ATOM     12  N1  UNK     1       3.315  36.049 238.034  1.00  0.00    -0.335 N 
ATOM     13  C4  UNK     1       2.212  35.658 237.204  1.00  0.00     0.085 C 
ATOM     14  H1  UNK     1       4.045  35.448 238.416  1.00  0.00     0.168 HD
BRANCH   9  15
ATOM     15  C3  UNK     1       1.041  39.269 237.973  1.00  0.00     0.224 C 
BRANCH  15  16
ATOM     16  O1  UNK     1       0.974  40.160 236.867  1.00  0.00    -0.395 OA
ATOM     17  H3  UNK     1       1.220  41.033 237.148  1.00  0.00     0.209 HD
ENDBRANCH  15  16
ENDBRANCH   9  15
BRANCH  13  18
ATOM     18  C5  UNK     1       2.042  34.199 236.809  1.00  0.00     0.076 C 
BRANCH  18  19
ATOM     19  C6  UNK     1       3.372  33.585 236.347  1.00  0.00     0.007 C 
BRANCH  19  20
ATOM     20  C7  UNK     1       3.338  32.090 236.012  1.00  0.00    -0.004 C 
ATOM     21  C8  UNK     1       2.554  31.805 234.758  1.00  0.00     0.005 C 
ENDBRANCH  19  20
ENDBRANCH  18  19
ENDBRANCH  13  18
ENDBRANCH   7   8
ENDBRANCH   1   7
BRANCH   6  22
ATOM     22  C16 UNK     1       0.177  36.116 230.745  1.00  0.00    -0.012 C 
ATOM     23  C17 UNK     1       0.676  34.826 230.181  1.00  0.00     0.013 C 
ATOM     24  C18 UNK     1       0.427  34.560 228.723  1.00  0.00     0.001 C 
ATOM     25  C19 UNK     1      -0.473  35.472 227.923  1.00  0.00     0.001 C 
ATOM     26  C20 UNK     1      -1.105  36.703 228.535  1.00  0.00     0.016 C 
ATOM     27  C21 UNK     1      -0.931  36.863 230.033  1.00  0.00     0.022 C 
BRANCH  27  28
ATOM     28  C22 UNK     1      -1.433  38.168 230.633  1.00  0.00     0.148 A 
ATOM     29  N3  UNK     1      -2.571  38.248 231.532  1.00  0.00    -0.268 N 
ATOM     30  N6  UNK     1      -2.694  39.548 231.656  1.00  0.00    -0.227 N 
ATOM     31  H3  UNK     1      -3.123  37.500 231.952  1.00  0.00     0.190 HD
ATOM     32  N5  UNK     1      -1.817  40.202 230.866  1.00  0.00    -0.227 N 
ATOM     33  H6  UNK     1      -3.367  40.006 232.270  1.00  0.00     0.210 HD
ATOM     34  N4  UNK     1      -1.010  39.456 230.130  1.00  0.00    -0.268 N 
ATOM     35  H23 UNK     1      -1.779  41.200 230.840  1.00  0.00     0.210 HD
ATOM     36  H4  UNK     1      -0.312  39.709 229.430  1.00  0.00     0.190 HD
ENDBRANCH  27  28
ENDBRANCH   6  22
TORSDOF 9
ENDMDL
MODEL 2
REMARK VINA RESULT:      -7.0      2.078      3.492
REMARK  9 active torsions:
REMARK  status: ('A' for Active; 'I' for Inactive)
REMARK    1  A    between atoms: C2_3  and  C3_4 
REMARK    2  A    between atoms: C3_4  and  O1_5 
REMARK    3  A    between atoms: C4_8  and  C5_9 
REMARK    4  A    between atoms: C5_9  and  C6_10 
REMARK    5  A    between atoms: C6_10  and  C7_11 
REMARK    6  A    between atoms: N2_13  and  C9_14 
REMARK    7  A    between atoms: C9_14  and  C10_15 
REMARK    8  A    between atoms: C15_20  and  C16_21 
REMARK    9  A    between atoms: C21_26  and  C22_27 
ROOT
ATOM      1  C10 UNK     1       0.398  36.230 234.794  1.00  0.00    -0.040 C 
ATOM      2  C11 UNK     1       1.167  37.292 234.001  1.00  0.00     0.010 C 
ATOM      3  C12 UNK     1       1.090  37.212 232.465  1.00  0.00     0.013 C 
ATOM      4  C13 UNK     1      -0.655  35.338 234.219  1.00  0.00     0.010 C 
ATOM      5  C14 UNK     1      -0.707  35.257 232.738  1.00  0.00     0.013 C 
ATOM      6  C15 UNK     1       0.242  36.061 231.875  1.00  0.00    -0.025 C 
ENDROOT
BRANCH   1   7
ATOM      7  C9  UNK     1       0.187  36.311 236.298  1.00  0.00     0.169 C 
BRANCH   7   8
ATOM      8  N2  UNK     1       1.375  35.747 236.798  1.00  0.00    -0.331 N 
ATOM      9  C2  UNK     1       1.324  34.420 237.308  1.00  0.00     0.075 C 
ATOM     10  C1  UNK     1       2.807  34.225 237.775  1.00  0.00     0.130 C 
ATOM     11 Cl1  UNK     1       3.563  32.693 238.204  1.00  0.00    -0.062 Cl
ATOM     12  N1  UNK     1       3.579  35.427 237.534  1.00  0.00    -0.335 N 
ATOM     13  C4  UNK     1       2.620  36.429 237.169  1.00  0.00     0.085 C 
ATOM     14  H1  UNK     1       4.591  35.536 237.607  1.00  0.00     0.168 HD
BRANCH   9  15
ATOM     15  C3  UNK     1       0.264  33.358 237.013  1.00  0.00     0.224 C 
BRANCH  15  16
ATOM     16  O1  UNK     1       0.615  32.472 235.959  1.00  0.00    -0.395 OA
ATOM     17  H3  UNK     1       0.046  31.712 235.980  1.00  0.00     0.209 HD
ENDBRANCH  15  16
ENDBRANCH   9  15
BRANCH  13  18
ATOM     18  C5  UNK     1       3.086  37.837 236.835  1.00  0.00     0.076 C 
BRANCH  18  19
ATOM     19  C6  UNK     1       2.542  38.861 237.843  1.00  0.00     0.007 C 
BRANCH  19  20
ATOM     20  C7  UNK     1       1.316  39.660 237.389  1.00  0.00    -0.004 C 
ATOM     21  C8  UNK     1       0.221  39.660 238.424  1.00  0.00     0.005 C 
ENDBRANCH  19  20
ENDBRANCH  18  19
ENDBRANCH  13  18
ENDBRANCH   7   8
ENDBRANCH   1   7
BRANCH   6  22
ATOM     22  C16 UNK     1      -0.041  35.980 230.374  1.00  0.00    -0.012 C 
ATOM     23  C17 UNK     1       0.476  34.751 229.703  1.00  0.00     0.013 C 
ATOM     24  C18 UNK     1       0.120  34.544 228.257  1.00  0.00     0.001 C 
ATOM     25  C19 UNK     1      -0.891  35.441 227.584  1.00  0.00     0.001 C 
ATOM     26  C20 UNK     1      -1.534  36.602 228.311  1.00  0.00     0.016 C 
ATOM     27  C21 UNK     1      -1.244  36.696 229.796  1.00  0.00     0.022 C 
BRANCH  27  28
ATOM     28  C22 UNK     1      -1.763  37.939 230.506  1.00  0.00     0.148 A 
ATOM     29  N3  UNK     1      -1.118  39.236 230.420  1.00  0.00    -0.268 N 
ATOM     30  N6  UNK     1      -1.828  39.921 231.284  1.00  0.00    -0.227 N 
ATOM     31  H3  UNK     1      -0.328  39.534 229.846  1.00  0.00     0.190 HD
ATOM     32  N5  UNK     1      -2.735  39.138 231.903  1.00  0.00    -0.227 N 
ATOM     33  H6  UNK     1      -1.710  40.918 231.465  1.00  0.00     0.210 HD
ATOM     34  N4  UNK     1      -2.760  37.863 231.552  1.00  0.00    -0.268 N 
ATOM     35  H23 UNK     1      -3.359  39.504 232.594  1.00  0.00     0.210 HD
ATOM     36  H4  UNK     1      -3.306  37.078 231.905  1.00  0.00     0.190 HD
ENDBRANCH  27  28
ENDBRANCH   6  22
TORSDOF 9
ENDMDL
MODEL 3
REMARK VINA RESULT:      -7.0      3.106      5.168
REMARK  9 active torsions:
REMARK  status: ('A' for Active; 'I' for Inactive)
REMARK    1  A    between atoms: C2_3  and  C3_4 
REMARK    2  A    between atoms: C3_4  and  O1_5 
REMARK    3  A    between atoms: C4_8  and  C5_9 
REMARK    4  A    between atoms: C5_9  and  C6_10 
REMARK    5  A    between atoms: C6_10  and  C7_11 
REMARK    6  A    between atoms: N2_13  and  C9_14 
REMARK    7  A    between atoms: C9_14  and  C10_15 
REMARK    8  A    between atoms: C15_20  and  C16_21 
REMARK    9  A    between atoms: C21_26  and  C22_27 
ROOT
ATOM      1  C10 UNK     1      -0.013  37.541 232.144  1.00  0.00    -0.040 C 
ATOM      2  C11 UNK     1      -1.079  38.454 232.757  1.00  0.00     0.010 C 
ATOM      3  C12 UNK     1      -1.872  39.353 231.790  1.00  0.00     0.013 C 
ATOM      4  C13 UNK     1       0.098  37.224 230.687  1.00  0.00     0.010 C 
ATOM      5  C14 UNK     1      -0.657  38.109 229.765  1.00  0.00     0.013 C 
ATOM      6  C15 UNK     1      -1.508  39.245 230.291  1.00  0.00    -0.025 C 
ENDROOT
BRANCH   1   7
ATOM      7  C9  UNK     1       0.683  36.439 232.927  1.00  0.00     0.169 C 
BRANCH   7   8
ATOM      8  N2  UNK     1      -0.025  36.443 234.143  1.00  0.00    -0.331 N 
ATOM      9  C2  UNK     1       0.637  36.935 235.303  1.00  0.00     0.075 C 
ATOM     10  C1  UNK     1      -0.471  36.722 236.389  1.00  0.00     0.130 C 
ATOM     11 Cl1  UNK     1      -0.479  37.415 238.008  1.00  0.00    -0.062 Cl
ATOM     12  N1  UNK     1      -1.649  36.115 235.804  1.00  0.00    -0.335 N 
ATOM     13  C4  UNK     1      -1.257  35.722 234.481  1.00  0.00     0.085 C 
ATOM     14  H1  UNK     1      -2.564  35.994 236.239  1.00  0.00     0.168 HD
BRANCH   9  15
ATOM     15  C3  UNK     1       1.861  37.850 235.348  1.00  0.00     0.224 C 
BRANCH  15  16
ATOM     16  O1  UNK     1       1.575  39.173 235.784  1.00  0.00    -0.395 OA
ATOM     17  H3  UNK     1       0.674  39.388 235.572  1.00  0.00     0.209 HD
ENDBRANCH  15  16
ENDBRANCH   9  15
BRANCH  13  18
ATOM     18  C5  UNK     1      -2.264  35.047 233.562  1.00  0.00     0.076 C 
BRANCH  18  19
ATOM     19  C6  UNK     1      -3.635  35.737 233.630  1.00  0.00     0.007 C 
BRANCH  19  20
ATOM     20  C7  UNK     1      -4.284  36.068 232.281  1.00  0.00    -0.004 C 
ATOM     21  C8  UNK     1      -3.330  35.884 231.130  1.00  0.00     0.005 C 
ENDBRANCH  19  20
ENDBRANCH  18  19
ENDBRANCH  13  18
ENDBRANCH   7   8
ENDBRANCH   1   7
BRANCH   6  22
ATOM     22  C16 UNK     1      -2.337  39.964 229.225  1.00  0.00    -0.012 C 
ATOM     23  C17 UNK     1      -3.700  39.397 229.001  1.00  0.00     0.013 C 
ATOM     24  C18 UNK     1      -4.616  40.133 228.064  1.00  0.00     0.001 C 
ATOM     25  C19 UNK     1      -4.236  41.498 227.541  1.00  0.00     0.001 C 
ATOM     26  C20 UNK     1      -2.914  42.145 227.890  1.00  0.00     0.016 C 
ATOM     27  C21 UNK     1      -2.080  41.427 228.934  1.00  0.00     0.022 C 
BRANCH  27  28
ATOM     28  C22 UNK     1      -0.687  41.987 229.184  1.00  0.00     0.148 A 
ATOM     29  N3  UNK     1      -0.436  43.194 229.951  1.00  0.00    -0.268 N 
ATOM     30  N6  UNK     1       0.854  43.337 229.768  1.00  0.00    -0.227 N 
ATOM     31  H3  UNK     1      -1.085  43.772 230.486  1.00  0.00     0.190 HD
ATOM     32  N5  UNK     1       1.337  42.404 228.921  1.00  0.00    -0.227 N 
ATOM     33  H6  UNK     1       1.421  44.060 230.209  1.00  0.00     0.210 HD
ATOM     34  N4  UNK     1       0.466  41.534 228.436  1.00  0.00    -0.268 N 
ATOM     35  H23 UNK     1       2.304  42.372 228.672  1.00  0.00     0.210 HD
ATOM     36  H4  UNK     1       0.573  40.785 227.753  1.00  0.00     0.190 HD
ENDBRANCH  27  28
ENDBRANCH   6  22
TORSDOF 9
ENDMDL
MODEL 4
REMARK VINA RESULT:      -6.9      1.751      3.056
REMARK  9 active torsions:
REMARK  status: ('A' for Active; 'I' for Inactive)
REMARK    1  A    between atoms: C2_3  and  C3_4 
REMARK    2  A    between atoms: C3_4  and  O1_5 
REMARK    3  A    between atoms: C4_8  and  C5_9 
REMARK    4  A    between atoms: C5_9  and  C6_10 
REMARK    5  A    between atoms: C6_10  and  C7_11 
REMARK    6  A    between atoms: N2_13  and  C9_14 
REMARK    7  A    between atoms: C9_14  and  C10_15 
REMARK    8  A    between atoms: C15_20  and  C16_21 
REMARK    9  A    between atoms: C21_26  and  C22_27 
ROOT
ATOM      1  C10 UNK     1       0.820  35.333 234.639  1.00  0.00    -0.040 C 
ATOM      2  C11 UNK     1       0.402  34.053 233.910  1.00  0.00     0.010 C 
ATOM      3  C12 UNK     1      -0.002  34.189 232.430  1.00  0.00     0.013 C 
ATOM      4  C13 UNK     1       1.169  36.620 233.964  1.00  0.00     0.010 C 
ATOM      5  C14 UNK     1       0.759  36.745 232.542  1.00  0.00     0.013 C 
ATOM      6  C15 UNK     1       0.055  35.612 231.827  1.00  0.00    -0.025 C 
ENDROOT
BRANCH   1   7
ATOM      7  C9  UNK     1       1.461  35.328 236.018  1.00  0.00     0.169 C 
BRANCH   7   8
ATOM      8  N2  UNK     1       0.662  36.247 236.723  1.00  0.00    -0.331 N 
ATOM      9  C2  UNK     1       1.299  37.372 237.317  1.00  0.00     0.075 C 
ATOM     10  C1  UNK     1       0.079  38.074 238.005  1.00  0.00     0.130 C 
ATOM     11 Cl1  UNK     1       0.058  39.713 238.649  1.00  0.00    -0.062 Cl
ATOM     12  N1  UNK     1      -1.135  37.314 237.788  1.00  0.00    -0.335 N 
ATOM     13  C4  UNK     1      -0.708  36.069 237.217  1.00  0.00     0.085 C 
ATOM     14  H1  UNK     1      -2.091  37.603 237.997  1.00  0.00     0.168 HD
BRANCH   9  15
ATOM     15  C3  UNK     1       2.664  37.957 236.954  1.00  0.00     0.224 C 
BRANCH  15  16
ATOM     16  O1  UNK     1       2.593  39.090 236.097  1.00  0.00    -0.395 OA
ATOM     17  H3  UNK     1       2.613  39.884 236.619  1.00  0.00     0.209 HD
ENDBRANCH  15  16
ENDBRANCH   9  15
BRANCH  13  18
ATOM     18  C5  UNK     1      -1.738  35.012 236.849  1.00  0.00     0.076 C 
BRANCH  18  19
ATOM     19  C6  UNK     1      -2.963  35.638 236.164  1.00  0.00     0.007 C 
BRANCH  19  20
ATOM     20  C7  UNK     1      -2.786  36.008 234.687  1.00  0.00    -0.004 C 
ATOM     21  C8  UNK     1      -3.310  34.937 233.766  1.00  0.00     0.005 C 
ENDBRANCH  19  20
ENDBRANCH  18  19
ENDBRANCH  13  18
ENDBRANCH   7   8
ENDBRANCH   1   7
BRANCH   6  22
ATOM     22  C16 UNK     1      -0.163  35.844 230.331  1.00  0.00    -0.012 C 
ATOM     23  C17 UNK     1       0.444  34.810 229.440  1.00  0.00     0.013 C 
ATOM     24  C18 UNK     1       0.158  34.902 227.968  1.00  0.00     0.001 C 
ATOM     25  C19 UNK     1      -0.871  35.879 227.450  1.00  0.00     0.001 C 
ATOM     26  C20 UNK     1      -1.602  36.829 228.374  1.00  0.00     0.016 C 
ATOM     27  C21 UNK     1      -1.377  36.615 229.858  1.00  0.00     0.022 C 
BRANCH  27  28
ATOM     28  C22 UNK     1      -1.989  37.653 230.788  1.00  0.00     0.148 A 
ATOM     29  N3  UNK     1      -3.303  37.513 231.389  1.00  0.00    -0.268 N 
ATOM     30  N6  UNK     1      -3.435  38.682 231.967  1.00  0.00    -0.227 N 
ATOM     31  H3  UNK     1      -3.948  36.722 231.367  1.00  0.00     0.190 HD
ATOM     32  N5  UNK     1      -2.389  39.488 231.688  1.00  0.00    -0.227 N 
ATOM     33  H6  UNK     1      -4.226  38.949 232.552  1.00  0.00     0.210 HD
ATOM     34  N4  UNK     1      -1.443  38.987 230.912  1.00  0.00    -0.268 N 
ATOM     35  H23 UNK     1      -2.333  40.418 232.051  1.00  0.00     0.210 HD
ATOM     36  H4  UNK     1      -0.598  39.407 230.524  1.00  0.00     0.190 HD
ENDBRANCH  27  28
ENDBRANCH   6  22
TORSDOF 9
ENDMDL
MODEL 5
REMARK VINA RESULT:      -6.8      1.864      3.120
REMARK  9 active torsions:
REMARK  status: ('A' for Active; 'I' for Inactive)
REMARK    1  A    between atoms: C2_3  and  C3_4 
REMARK    2  A    between atoms: C3_4  and  O1_5 
REMARK    3  A    between atoms: C4_8  and  C5_9 
REMARK    4  A    between atoms: C5_9  and  C6_10 
REMARK    5  A    between atoms: C6_10  and  C7_11 
REMARK    6  A    between atoms: N2_13  and  C9_14 
REMARK    7  A    between atoms: C9_14  and  C10_15 
REMARK    8  A    between atoms: C15_20  and  C16_21 
REMARK    9  A    between atoms: C21_26  and  C22_27 
ROOT
ATOM      1  C10 UNK     1       1.088  35.286 234.745  1.00  0.00    -0.040 C 
ATOM      2  C11 UNK     1       1.305  36.743 234.324  1.00  0.00     0.010 C 
ATOM      3  C12 UNK     1       1.013  37.100 232.855  1.00  0.00     0.013 C 
ATOM      4  C13 UNK     1       0.330  34.275 233.946  1.00  0.00     0.010 C 
ATOM      5  C14 UNK     1       0.070  34.624 232.526  1.00  0.00     0.013 C 
ATOM      6  C15 UNK     1       0.530  35.944 231.946  1.00  0.00    -0.025 C 
ENDROOT
BRANCH   1   7
ATOM      7  C9  UNK     1       1.108  34.831 236.195  1.00  0.00     0.169 C 
BRANCH   7   8
ATOM      8  N2  UNK     1       0.849  36.028 236.888  1.00  0.00    -0.331 N 
ATOM      9  C2  UNK     1       1.917  36.628 237.613  1.00  0.00     0.075 C 
ATOM     10  C1  UNK     1       1.191  37.869 238.236  1.00  0.00     0.130 C 
ATOM     11 Cl1  UNK     1       1.975  39.255 238.988  1.00  0.00    -0.062 Cl
ATOM     12  N1  UNK     1      -0.208  37.883 237.860  1.00  0.00    -0.335 N 
ATOM     13  C4  UNK     1      -0.450  36.610 237.244  1.00  0.00     0.085 C 
ATOM     14  H1  UNK     1      -0.879  38.639 238.002  1.00  0.00     0.168 HD
BRANCH   9  15
ATOM     15  C3  UNK     1       3.414  36.392 237.414  1.00  0.00     0.224 C 
BRANCH  15  16
ATOM     16  O1  UNK     1       4.048  37.375 236.605  1.00  0.00    -0.395 OA
ATOM     17  H3  UNK     1       3.693  38.231 236.811  1.00  0.00     0.209 HD
ENDBRANCH  15  16
ENDBRANCH   9  15
BRANCH  13  18
ATOM     18  C5  UNK     1      -1.835  36.276 236.715  1.00  0.00     0.076 C 
BRANCH  18  19
ATOM     19  C6  UNK     1      -2.369  34.971 237.326  1.00  0.00     0.007 C 
BRANCH  19  20
ATOM     20  C7  UNK     1      -2.355  34.895 238.856  1.00  0.00    -0.004 C 
ATOM     21  C8  UNK     1      -3.687  35.259 239.457  1.00  0.00     0.005 C 
ENDBRANCH  19  20
ENDBRANCH  18  19
ENDBRANCH  13  18
ENDBRANCH   7   8
ENDBRANCH   1   7
BRANCH   6  22
ATOM     22  C16 UNK     1       0.054  36.211 230.518  1.00  0.00    -0.012 C 
ATOM     23  C17 UNK     1       0.705  35.369 229.471  1.00  0.00     0.013 C 
ATOM     24  C18 UNK     1       0.192  35.486 228.063  1.00  0.00     0.001 C 
ATOM     25  C19 UNK     1      -1.066  36.268 227.772  1.00  0.00     0.001 C 
ATOM     26  C20 UNK     1      -1.818  37.002 228.861  1.00  0.00     0.016 C 
ATOM     27  C21 UNK     1      -1.339  36.754 230.279  1.00  0.00     0.022 C 
BRANCH  27  28
ATOM     28  C22 UNK     1      -1.989  37.598 231.366  1.00  0.00     0.148 A 
ATOM     29  N3  UNK     1      -1.696  39.005 231.568  1.00  0.00    -0.268 N 
ATOM     30  N6  UNK     1      -2.368  39.240 232.670  1.00  0.00    -0.227 N 
ATOM     31  H3  UNK     1      -1.125  39.638 231.007  1.00  0.00     0.190 HD
ATOM     32  N5  UNK     1      -2.929  38.112 233.152  1.00  0.00    -0.227 N 
ATOM     33  H6  UNK     1      -2.455  40.157 233.106  1.00  0.00     0.210 HD
ATOM     34  N4  UNK     1      -2.720  37.002 232.464  1.00  0.00    -0.268 N 
ATOM     35  H23 UNK     1      -3.476  38.115 233.989  1.00  0.00     0.210 HD
ATOM     36  H4  UNK     1      -2.988  36.035 232.648  1.00  0.00     0.190 HD
ENDBRANCH  27  28
ENDBRANCH   6  22
TORSDOF 9
ENDMDL
MODEL 6
REMARK VINA RESULT:      -6.7      3.423      7.341
REMARK  9 active torsions:
REMARK  status: ('A' for Active; 'I' for Inactive)
REMARK    1  A    between atoms: C2_3  and  C3_4 
REMARK    2  A    between atoms: C3_4  and  O1_5 
REMARK    3  A    between atoms: C4_8  and  C5_9 
REMARK    4  A    between atoms: C5_9  and  C6_10 
REMARK    5  A    between atoms: C6_10  and  C7_11 
REMARK    6  A    between atoms: N2_13  and  C9_14 
REMARK    7  A    between atoms: C9_14  and  C10_15 
REMARK    8  A    between atoms: C15_20  and  C16_21 
REMARK    9  A    between atoms: C21_26  and  C22_27 
ROOT
ATOM      1  C10 UNK     1      -0.833  38.137 233.654  1.00  0.00    -0.040 C 
ATOM      2  C11 UNK     1      -0.080  37.197 232.709  1.00  0.00     0.010 C 
ATOM      3  C12 UNK     1       0.775  36.090 233.355  1.00  0.00     0.013 C 
ATOM      4  C13 UNK     1      -1.058  37.878 235.110  1.00  0.00     0.010 C 
ATOM      5  C14 UNK     1      -0.216  36.821 235.724  1.00  0.00     0.013 C 
ATOM      6  C15 UNK     1       0.788  36.042 234.901  1.00  0.00    -0.025 C 
ENDROOT
BRANCH   1   7
ATOM      7  C9  UNK     1      -1.890  39.120 233.176  1.00  0.00     0.169 C 
BRANCH   7   8
ATOM      8  N2  UNK     1      -2.515  38.406 232.137  1.00  0.00    -0.331 N 
ATOM      9  C2  UNK     1      -2.380  38.900 230.809  1.00  0.00     0.075 C 
ATOM     10  C1  UNK     1      -3.237  37.855 230.017  1.00  0.00     0.130 C 
ATOM     11 Cl1  UNK     1      -3.248  37.639 228.269  1.00  0.00    -0.062 Cl
ATOM     12  N1  UNK     1      -3.810  36.876 230.919  1.00  0.00    -0.335 N 
ATOM     13  C4  UNK     1      -3.561  37.383 232.238  1.00  0.00     0.085 C 
ATOM     14  H1  UNK     1      -4.288  36.010 230.669  1.00  0.00     0.168 HD
BRANCH   9  15
ATOM     15  C3  UNK     1      -1.311  39.859 230.285  1.00  0.00     0.224 C 
BRANCH  15  16
ATOM     16  O1  UNK     1      -1.568  41.225 230.584  1.00  0.00    -0.395 OA
ATOM     17  H3  UNK     1      -1.384  41.757 229.819  1.00  0.00     0.209 HD
ENDBRANCH  15  16
ENDBRANCH   9  15
BRANCH  13  18
ATOM     18  C5  UNK     1      -4.028  36.596 233.452  1.00  0.00     0.076 C 
BRANCH  18  19
ATOM     19  C6  UNK     1      -3.229  35.294 233.617  1.00  0.00     0.007 C 
BRANCH  19  20
ATOM     20  C7  UNK     1      -3.493  34.505 234.904  1.00  0.00    -0.004 C 
ATOM     21  C8  UNK     1      -2.282  33.730 235.355  1.00  0.00     0.005 C 
ENDBRANCH  19  20
ENDBRANCH  18  19
ENDBRANCH  13  18
ENDBRANCH   7   8
ENDBRANCH   1   7
BRANCH   6  22
ATOM     22  C16 UNK     1       1.465  34.891 235.648  1.00  0.00    -0.012 C 
ATOM     23  C17 UNK     1       1.299  33.548 235.015  1.00  0.00     0.013 C 
ATOM     24  C18 UNK     1       2.046  32.395 235.622  1.00  0.00     0.001 C 
ATOM     25  C19 UNK     1       3.081  32.635 236.696  1.00  0.00     0.001 C 
ATOM     26  C20 UNK     1       3.360  34.021 237.235  1.00  0.00     0.016 C 
ATOM     27  C21 UNK     1       2.679  35.165 236.509  1.00  0.00     0.022 C 
BRANCH  27  28
ATOM     28  C22 UNK     1       2.835  36.545 237.132  1.00  0.00     0.148 A 
ATOM     29  N3  UNK     1       2.098  36.981 238.304  1.00  0.00    -0.268 N 
ATOM     30  N6  UNK     1       2.455  38.241 238.364  1.00  0.00    -0.227 N 
ATOM     31  H3  UNK     1       1.474  36.453 238.914  1.00  0.00     0.190 HD
ATOM     32  N5  UNK     1       3.234  38.581 237.316  1.00  0.00    -0.227 N 
ATOM     33  H6  UNK     1       2.180  38.883 239.107  1.00  0.00     0.210 HD
ATOM     34  N4  UNK     1       3.500  37.627 236.439  1.00  0.00    -0.268 N 
ATOM     35  H23 UNK     1       3.593  39.508 237.208  1.00  0.00     0.210 HD
ATOM     36  H4  UNK     1       4.010  37.648 235.555  1.00  0.00     0.190 HD
ENDBRANCH  27  28
ENDBRANCH   6  22
TORSDOF 9
ENDMDL
MODEL 7
REMARK VINA RESULT:      -6.7      3.825      7.916
REMARK  9 active torsions:
REMARK  status: ('A' for Active; 'I' for Inactive)
REMARK    1  A    between atoms: C2_3  and  C3_4 
REMARK    2  A    between atoms: C3_4  and  O1_5 
REMARK    3  A    between atoms: C4_8  and  C5_9 
REMARK    4  A    between atoms: C5_9  and  C6_10 
REMARK    5  A    between atoms: C6_10  and  C7_11 
REMARK    6  A    between atoms: N2_13  and  C9_14 
REMARK    7  A    between atoms: C9_14  and  C10_15 
REMARK    8  A    between atoms: C15_20  and  C16_21 
REMARK    9  A    between atoms: C21_26  and  C22_27 
ROOT
ATOM      1  C10 UNK     1      -1.470  37.746 233.829  1.00  0.00    -0.040 C 
ATOM      2  C11 UNK     1      -1.820  37.283 235.247  1.00  0.00     0.010 C 
ATOM      3  C12 UNK     1      -0.958  36.157 235.849  1.00  0.00     0.013 C 
ATOM      4  C13 UNK     1      -0.192  37.427 233.122  1.00  0.00     0.010 C 
ATOM      5  C14 UNK     1       0.621  36.329 233.703  1.00  0.00     0.013 C 
ATOM      6  C15 UNK     1       0.179  35.604 234.956  1.00  0.00    -0.025 C 
ENDROOT
BRANCH   1   7
ATOM      7  C9  UNK     1      -2.070  38.991 233.194  1.00  0.00     0.169 C 
BRANCH   7   8
ATOM      8  N2  UNK     1      -2.808  38.454 232.123  1.00  0.00    -0.331 N 
ATOM      9  C2  UNK     1      -2.586  38.987 230.822  1.00  0.00     0.075 C 
ATOM     10  C1  UNK     1      -3.611  38.152 229.981  1.00  0.00     0.130 C 
ATOM     11 Cl1  UNK     1      -3.655  38.036 228.225  1.00  0.00    -0.062 Cl
ATOM     12  N1  UNK     1      -4.349  37.243 230.834  1.00  0.00    -0.335 N 
ATOM     13  C4  UNK     1      -4.018  37.627 232.176  1.00  0.00     0.085 C 
ATOM     14  H1  UNK     1      -4.971  36.489 230.542  1.00  0.00     0.168 HD
BRANCH   9  15
ATOM     15  C3  UNK     1      -1.363  39.770 230.342  1.00  0.00     0.224 C 
BRANCH  15  16
ATOM     16  O1  UNK     1      -1.410  41.156 230.654  1.00  0.00    -0.395 OA
ATOM     17  H3  UNK     1      -1.136  41.661 229.898  1.00  0.00     0.209 HD
ENDBRANCH  15  16
ENDBRANCH   9  15
BRANCH  13  18
ATOM     18  C5  UNK     1      -4.619  36.870 233.350  1.00  0.00     0.076 C 
BRANCH  18  19
ATOM     19  C6  UNK     1      -5.320  37.823 234.331  1.00  0.00     0.007 C 
BRANCH  19  20
ATOM     20  C7  UNK     1      -6.728  37.411 234.773  1.00  0.00    -0.004 C 
ATOM     21  C8  UNK     1      -7.563  38.594 235.187  1.00  0.00     0.005 C 
ENDBRANCH  19  20
ENDBRANCH  18  19
ENDBRANCH  13  18
ENDBRANCH   7   8
ENDBRANCH   1   7
BRANCH   6  22
ATOM     22  C16 UNK     1       1.198  34.606 235.506  1.00  0.00    -0.012 C 
ATOM     23  C17 UNK     1       1.189  33.269 234.842  1.00  0.00     0.013 C 
ATOM     24  C18 UNK     1       2.251  32.284 235.242  1.00  0.00     0.001 C 
ATOM     25  C19 UNK     1       3.398  32.715 236.126  1.00  0.00     0.001 C 
ATOM     26  C20 UNK     1       3.490  34.120 236.681  1.00  0.00     0.016 C 
ATOM     27  C21 UNK     1       2.472  35.110 236.151  1.00  0.00     0.022 C 
BRANCH  27  28
ATOM     28  C22 UNK     1       2.461  36.483 236.809  1.00  0.00     0.148 A 
ATOM     29  N3  UNK     1       3.024  37.670 236.191  1.00  0.00    -0.268 N 
ATOM     30  N6  UNK     1       2.907  38.535 237.170  1.00  0.00    -0.227 N 
ATOM     31  H3  UNK     1       3.406  37.797 235.253  1.00  0.00     0.190 HD
ATOM     32  N5  UNK     1       2.426  37.951 238.287  1.00  0.00    -0.227 N 
ATOM     33  H6  UNK     1       3.148  39.523 237.096  1.00  0.00     0.210 HD
ATOM     34  N4  UNK     1       2.162  36.657 238.214  1.00  0.00    -0.268 N 
ATOM     35  H23 UNK     1       2.277  38.470 239.127  1.00  0.00     0.210 HD
ATOM     36  H4  UNK     1       1.847  35.993 238.922  1.00  0.00     0.190 HD
ENDBRANCH  27  28
ENDBRANCH   6  22
TORSDOF 9
ENDMDL
MODEL 8
REMARK VINA RESULT:      -6.6      3.375      7.537
REMARK  9 active torsions:
REMARK  status: ('A' for Active; 'I' for Inactive)
REMARK    1  A    between atoms: C2_3  and  C3_4 
REMARK    2  A    between atoms: C3_4  and  O1_5 
REMARK    3  A    between atoms: C4_8  and  C5_9 
REMARK    4  A    between atoms: C5_9  and  C6_10 
REMARK    5  A    between atoms: C6_10  and  C7_11 
REMARK    6  A    between atoms: N2_13  and  C9_14 
REMARK    7  A    between atoms: C9_14  and  C10_15 
REMARK    8  A    between atoms: C15_20  and  C16_21 
REMARK    9  A    between atoms: C21_26  and  C22_27 
ROOT
ATOM      1  C10 UNK     1      -1.368  37.876 233.762  1.00  0.00    -0.040 C 
ATOM      2  C11 UNK     1      -2.020  37.206 234.975  1.00  0.00     0.010 C 
ATOM      3  C12 UNK     1      -1.140  36.254 235.807  1.00  0.00     0.013 C 
ATOM      4  C13 UNK     1       0.105  37.931 233.510  1.00  0.00     0.010 C 
ATOM      5  C14 UNK     1       0.940  36.997 234.306  1.00  0.00     0.013 C 
ATOM      6  C15 UNK     1       0.320  36.069 235.329  1.00  0.00    -0.025 C 
ENDROOT
BRANCH   1   7
ATOM      7  C9  UNK     1      -2.027  39.007 232.987  1.00  0.00     0.169 C 
BRANCH   7   8
ATOM      8  N2  UNK     1      -2.653  38.321 231.930  1.00  0.00    -0.331 N 
ATOM      9  C2  UNK     1      -3.918  37.718 232.179  1.00  0.00     0.075 C 
ATOM     10  C1  UNK     1      -4.209  37.057 230.789  1.00  0.00     0.130 C 
ATOM     11 Cl1  UNK     1      -5.760  36.418 230.251  1.00  0.00    -0.062 Cl
ATOM     12  N1  UNK     1      -3.112  37.295 229.871  1.00  0.00    -0.335 N 
ATOM     13  C4  UNK     1      -2.062  37.854 230.672  1.00  0.00     0.085 C 
ATOM     14  H1  UNK     1      -3.093  37.107 228.869  1.00  0.00     0.168 HD
BRANCH   9  15
ATOM     15  C3  UNK     1      -4.896  38.056 233.304  1.00  0.00     0.224 C 
BRANCH  15  16
ATOM     16  O1  UNK     1      -5.471  36.914 233.928  1.00  0.00    -0.395 OA
ATOM     17  H3  UNK     1      -6.322  37.142 234.282  1.00  0.00     0.209 HD
ENDBRANCH  15  16
ENDBRANCH   9  15
BRANCH  13  18
ATOM     18  C5  UNK     1      -0.740  38.238 230.025  1.00  0.00     0.076 C 
BRANCH  18  19
ATOM     19  C6  UNK     1      -0.004  37.005 229.479  1.00  0.00     0.007 C 
BRANCH  19  20
ATOM     20  C7  UNK     1       0.901  36.271 230.475  1.00  0.00    -0.004 C 
ATOM     21  C8  UNK     1       0.207  35.099 231.118  1.00  0.00     0.005 C 
ENDBRANCH  19  20
ENDBRANCH  18  19
ENDBRANCH  13  18
ENDBRANCH   7   8
ENDBRANCH   1   7
BRANCH   6  22
ATOM     22  C16 UNK     1       1.329  35.281 236.166  1.00  0.00    -0.012 C 
ATOM     23  C17 UNK     1       1.670  33.929 235.631  1.00  0.00     0.013 C 
ATOM     24  C18 UNK     1       2.751  33.155 236.330  1.00  0.00     0.001 C 
ATOM     25  C19 UNK     1       3.594  33.813 237.397  1.00  0.00     0.001 C 
ATOM     26  C20 UNK     1       3.348  35.240 237.837  1.00  0.00     0.016 C 
ATOM     27  C21 UNK     1       2.337  36.020 237.021  1.00  0.00     0.022 C 
BRANCH  27  28
ATOM     28  C22 UNK     1       1.974  37.404 237.543  1.00  0.00     0.148 A 
ATOM     29  N3  UNK     1       0.909  37.643 238.500  1.00  0.00    -0.268 N 
ATOM     30  N6  UNK     1       0.891  38.954 238.524  1.00  0.00    -0.227 N 
ATOM     31  H3  UNK     1       0.333  36.975 239.013  1.00  0.00     0.190 HD
ATOM     32  N5  UNK     1       1.758  39.473 237.631  1.00  0.00    -0.227 N 
ATOM     33  H6  UNK     1       0.297  39.510 239.139  1.00  0.00     0.210 HD
ATOM     34  N4  UNK     1       2.457  38.612 236.910  1.00  0.00    -0.268 N 
ATOM     35  H23 UNK     1       1.868  40.461 237.521  1.00  0.00     0.210 HD
ATOM     36  H4  UNK     1       3.122  38.754 236.151  1.00  0.00     0.190 HD
ENDBRANCH  27  28
ENDBRANCH   6  22
TORSDOF 9
ENDMDL
MODEL 9
REMARK VINA RESULT:      -6.5      2.452      3.905
REMARK  9 active torsions:
REMARK  status: ('A' for Active; 'I' for Inactive)
REMARK    1  A    between atoms: C2_3  and  C3_4 
REMARK    2  A    between atoms: C3_4  and  O1_5 
REMARK    3  A    between atoms: C4_8  and  C5_9 
REMARK    4  A    between atoms: C5_9  and  C6_10 
REMARK    5  A    between atoms: C6_10  and  C7_11 
REMARK    6  A    between atoms: N2_13  and  C9_14 
REMARK    7  A    between atoms: C9_14  and  C10_15 
REMARK    8  A    between atoms: C15_20  and  C16_21 
REMARK    9  A    between atoms: C21_26  and  C22_27 
ROOT
ATOM      1  C10 UNK     1       0.902  35.729 234.584  1.00  0.00    -0.040 C 
ATOM      2  C11 UNK     1       0.439  34.420 233.938  1.00  0.00     0.010 C 
ATOM      3  C12 UNK     1       0.051  34.471 232.449  1.00  0.00     0.013 C 
ATOM      4  C13 UNK     1       1.305  36.954 233.827  1.00  0.00     0.010 C 
ATOM      5  C14 UNK     1       0.910  36.999 232.396  1.00  0.00     0.013 C 
ATOM      6  C15 UNK     1       0.166  35.848 231.752  1.00  0.00    -0.025 C 
ENDROOT
BRANCH   1   7
ATOM      7  C9  UNK     1       1.534  35.792 235.966  1.00  0.00     0.169 C 
BRANCH   7   8
ATOM      8  N2  UNK     1       0.429  36.082 236.787  1.00  0.00    -0.331 N 
ATOM      9  C2  UNK     1      -0.392  35.000 237.212  1.00  0.00     0.075 C 
ATOM     10  C1  UNK     1      -1.481  35.763 238.041  1.00  0.00     0.130 C 
ATOM     11 Cl1  UNK     1      -2.639  35.030 239.147  1.00  0.00    -0.062 Cl
ATOM     12  N1  UNK     1      -1.235  37.190 238.014  1.00  0.00    -0.335 N 
ATOM     13  C4  UNK     1      -0.208  37.381 237.032  1.00  0.00     0.085 C 
ATOM     14  H1  UNK     1      -1.695  37.908 238.576  1.00  0.00     0.168 HD
BRANCH   9  15
ATOM     15  C3  UNK     1      -0.016  33.519 237.256  1.00  0.00     0.224 C 
BRANCH  15  16
ATOM     16  O1  UNK     1       0.894  33.187 238.297  1.00  0.00    -0.395 OA
ATOM     17  H3  UNK     1       1.377  32.405 238.058  1.00  0.00     0.209 HD
ENDBRANCH  15  16
ENDBRANCH   9  15
BRANCH  13  18
ATOM     18  C5  UNK     1       0.311  38.780 236.740  1.00  0.00     0.076 C 
BRANCH  18  19
ATOM     19  C6  UNK     1       0.771  39.486 238.026  1.00  0.00     0.007 C 
BRANCH  19  20
ATOM     20  C7  UNK     1       1.937  38.826 238.770  1.00  0.00    -0.004 C 
ATOM     21  C8  UNK     1       3.191  38.780 237.937  1.00  0.00     0.005 C 
ENDBRANCH  19  20
ENDBRANCH  18  19
ENDBRANCH  13  18
ENDBRANCH   7   8
ENDBRANCH   1   7
BRANCH   6  22
ATOM     22  C16 UNK     1      -0.033  35.986 230.242  1.00  0.00    -0.012 C 
ATOM     23  C17 UNK     1       0.645  34.939 229.421  1.00  0.00     0.013 C 
ATOM     24  C18 UNK     1       0.385  34.937 227.941  1.00  0.00     0.001 C 
ATOM     25  C19 UNK     1      -0.683  35.829 227.352  1.00  0.00     0.001 C 
ATOM     26  C20 UNK     1      -1.481  36.787 228.209  1.00  0.00     0.016 C 
ATOM     27  C21 UNK     1      -1.275  36.666 229.707  1.00  0.00     0.022 C 
BRANCH  27  28
ATOM     28  C22 UNK     1      -1.958  37.719 230.568  1.00  0.00     0.148 A 
ATOM     29  N3  UNK     1      -1.449  39.068 230.734  1.00  0.00    -0.268 N 
ATOM     30  N6  UNK     1      -2.271  39.530 231.645  1.00  0.00    -0.227 N 
ATOM     31  H3  UNK     1      -0.667  39.531 230.270  1.00  0.00     0.190 HD
ATOM     32  N5  UNK     1      -3.123  38.573 232.068  1.00  0.00    -0.227 N 
ATOM     33  H6  UNK     1      -2.268  40.490 231.989  1.00  0.00     0.210 HD
ATOM     34  N4  UNK     1      -2.995  37.378 231.517  1.00  0.00    -0.268 N 
ATOM     35  H23 UNK     1      -3.816  38.759 232.764  1.00  0.00     0.210 HD
ATOM     36  H4  UNK     1      -3.474  36.496 231.703  1.00  0.00     0.190 HD
ENDBRANCH  27  28
ENDBRANCH   6  22
TORSDOF 9
ENDMDL
