MODEL 1
REMARK VINA RESULT:      -5.7      0.000      0.000
REMARK  10 active torsions:
REMARK  status: ('A' for Active; 'I' for Inactive)
REMARK    1  A    between atoms: C6_7  and  C7_8 
REMARK    2  A    between atoms: C8_9  and  C9_10 
REMARK    3  A    between atoms: C9_10  and  O2_12 
REMARK    4  A    between atoms: O2_12  and  C10_13 
REMARK    5  A    between atoms: C12_15  and  C13_16 
REMARK    6  A    between atoms: C13_16  and  O4_18 
REMARK    7  A    between atoms: C17_23  and  C18_24 
REMARK    8  A    between atoms: C18_24  and  O5_25 
REMARK    9  A    between atoms: O5_25  and  C19_26 
REMARK   10  A    between atoms: C20_27  and  N2_28 
ROOT
ATOM      1  C7  UNK     1       0.412  35.566 234.470  1.00  0.00     0.030 C 
ATOM      2  C8  UNK     1      -0.045  36.652 235.298  1.00  0.00     0.052 C 
ATOM      3  C12 UNK     1       1.016  34.489 235.219  1.00  0.00     0.049 C 
ATOM      4  C15 UNK     1       1.946  35.044 236.078  1.00  0.00     0.018 C 
ATOM      5  C16 UNK     1       2.856  34.166 236.883  1.00  0.00     0.069 C 
ATOM      6  N1  UNK     1       2.057  36.366 236.199  1.00  0.00    -0.360 N 
ATOM      7  C17 UNK     1       0.951  37.061 236.122  1.00  0.00     0.046 C 
ATOM      8  H25 UNK     1       2.944  36.807 236.343  1.00  0.00     0.165 HD
ENDROOT
BRANCH   1   9
ATOM      9  C6  UNK     1       0.146  35.524 232.964  1.00  0.00     0.115 A 
ATOM     10  C1  UNK     1      -0.747  34.809 232.186  1.00  0.00     0.021 A 
ATOM     11 Cl1  UNK     1      -1.852  33.661 232.781  1.00  0.00    -0.088 Cl
ATOM     12  C2  UNK     1      -0.754  34.994 230.822  1.00  0.00     0.020 A 
ATOM     13  C3  UNK     1       0.100  35.878 230.221  1.00  0.00     0.001 A 
ATOM     14  C4  UNK     1       0.981  36.596 230.988  1.00  0.00    -0.003 A 
ATOM     15  C5  UNK     1       0.992  36.415 232.349  1.00  0.00    -0.015 A 
ENDBRANCH   1   9
BRANCH   2  16
ATOM     16  C9  UNK     1      -1.215  37.436 235.038  1.00  0.00     0.292 C 
ATOM     17  O1  UNK     1      -2.275  37.008 235.389  1.00  0.00    -0.260 OA
BRANCH  16  18
ATOM     18  O2  UNK     1      -1.132  38.515 234.307  1.00  0.00    -0.318 OA
BRANCH  18  19
ATOM     19  C10 UNK     1      -2.181  38.472 233.468  1.00  0.00     0.174 C 
ATOM     20  C11 UNK     1      -1.758  39.017 232.118  1.00  0.00     0.034 C 
ENDBRANCH  18  19
ENDBRANCH  16  18
ENDBRANCH   2  16
BRANCH   3  21
ATOM     21  C13 UNK     1       0.880  33.034 234.871  1.00  0.00     0.291 C 
ATOM     22  O3  UNK     1       0.119  32.306 235.476  1.00  0.00    -0.260 OA
BRANCH  21  23
ATOM     23  O4  UNK     1       1.693  32.525 233.965  1.00  0.00    -0.323 OA
ATOM     24  C14 UNK     1       2.148  31.367 234.530  1.00  0.00     0.213 C 
ENDBRANCH  21  23
ENDBRANCH   3  21
BRANCH   7  25
ATOM     25  C18 UNK     1       0.872  38.297 236.910  1.00  0.00     0.225 C 
BRANCH  25  26
ATOM     26  O5  UNK     1       2.026  38.930 236.963  1.00  0.00    -0.384 OA
BRANCH  26  27
ATOM     27  C19 UNK     1       2.544  39.108 238.295  1.00  0.00     0.197 C 
ATOM     28  C20 UNK     1       3.724  38.687 238.671  1.00  0.00     0.292 C 
BRANCH  28  29
ATOM     29  N2  UNK     1       3.952  37.267 238.561  1.00  0.00     0.080 NA
ATOM     30  H22 UNK     1       3.219  36.852 238.023  1.00  0.00     0.312 HD
ATOM     31  H23 UNK     1       4.829  37.104 238.110  1.00  0.00     0.312 HD
ENDBRANCH  28  29
ENDBRANCH  26  27
ENDBRANCH  25  26
ENDBRANCH   7  25
TORSDOF 10
ENDMDL
MODEL 2
REMARK VINA RESULT:      -5.5      2.835      4.851
REMARK  10 active torsions:
REMARK  status: ('A' for Active; 'I' for Inactive)
REMARK    1  A    between atoms: C6_7  and  C7_8 
REMARK    2  A    between atoms: C8_9  and  C9_10 
REMARK    3  A    between atoms: C9_10  and  O2_12 
REMARK    4  A    between atoms: O2_12  and  C10_13 
REMARK    5  A    between atoms: C12_15  and  C13_16 
REMARK    6  A    between atoms: C13_16  and  O4_18 
REMARK    7  A    between atoms: C17_23  and  C18_24 
REMARK    8  A    between atoms: C18_24  and  O5_25 
REMARK    9  A    between atoms: O5_25  and  C19_26 
REMARK   10  A    between atoms: C20_27  and  N2_28 
ROOT
ATOM      1  C7  UNK     1       2.152  34.921 237.453  1.00  0.00     0.030 C 
ATOM      2  C8  UNK     1       1.501  35.890 236.611  1.00  0.00     0.052 C 
ATOM      3  C12 UNK     1       2.602  35.465 238.713  1.00  0.00     0.049 C 
ATOM      4  C15 UNK     1       3.309  36.621 238.442  1.00  0.00     0.018 C 
ATOM      5  C16 UNK     1       4.042  37.338 239.537  1.00  0.00     0.069 C 
ATOM      6  N1  UNK     1       3.362  37.114 237.205  1.00  0.00    -0.360 N 
ATOM      7  C17 UNK     1       2.283  36.989 236.474  1.00  0.00     0.046 C 
ATOM      8  H25 UNK     1       4.185  37.559 236.852  1.00  0.00     0.165 HD
ENDROOT
BRANCH   1   9
ATOM      9  C6  UNK     1       2.222  33.438 237.082  1.00  0.00     0.115 A 
ATOM     10  C1  UNK     1       1.424  32.352 237.393  1.00  0.00     0.021 A 
ATOM     11 Cl1  UNK     1       0.053  32.409 238.397  1.00  0.00    -0.088 Cl
ATOM     12  C2  UNK     1       1.747  31.110 236.893  1.00  0.00     0.020 A 
ATOM     13  C3  UNK     1       2.838  30.932 236.087  1.00  0.00     0.001 A 
ATOM     14  C4  UNK     1       3.628  32.006 235.768  1.00  0.00    -0.003 A 
ATOM     15  C5  UNK     1       3.310  33.246 236.264  1.00  0.00    -0.015 A 
ENDBRANCH   1   9
BRANCH   2  16
ATOM     16  C9  UNK     1       0.398  35.604 235.743  1.00  0.00     0.292 C 
ATOM     17  O1  UNK     1      -0.706  35.626 236.202  1.00  0.00    -0.260 OA
BRANCH  16  18
ATOM     18  O2  UNK     1       0.615  35.187 234.525  1.00  0.00    -0.318 OA
BRANCH  18  19
ATOM     19  C10 UNK     1      -0.187  34.120 234.353  1.00  0.00     0.174 C 
ATOM     20  C11 UNK     1       0.608  33.004 233.704  1.00  0.00     0.034 C 
ENDBRANCH  18  19
ENDBRANCH  16  18
ENDBRANCH   2  16
BRANCH   3  21
ATOM     21  C13 UNK     1       2.578  34.718 240.016  1.00  0.00     0.291 C 
ATOM     22  O3  UNK     1       1.638  34.807 240.780  1.00  0.00    -0.260 OA
BRANCH  21  23
ATOM     23  O4  UNK     1       3.657  34.048 240.377  1.00  0.00    -0.323 OA
ATOM     24  C14 UNK     1       3.196  32.794 240.660  1.00  0.00     0.213 C 
ENDBRANCH  21  23
ENDBRANCH   3  21
BRANCH   7  25
ATOM     25  C18 UNK     1       2.007  38.043 235.491  1.00  0.00     0.225 C 
BRANCH  25  26
ATOM     26  O5  UNK     1       1.742  39.201 236.060  1.00  0.00    -0.384 OA
BRANCH  26  27
ATOM     27  C19 UNK     1       0.490  39.240 236.771  1.00  0.00     0.197 C 
ATOM     28  C20 UNK     1       0.353  39.772 237.958  1.00  0.00     0.292 C 
BRANCH  28  29
ATOM     29  N2  UNK     1       1.157  39.193 239.007  1.00  0.00     0.080 NA
ATOM     30  H22 UNK     1       0.989  38.209 239.050  1.00  0.00     0.312 HD
ATOM     31  H23 UNK     1       2.124  39.358 238.815  1.00  0.00     0.312 HD
ENDBRANCH  28  29
ENDBRANCH  26  27
ENDBRANCH  25  26
ENDBRANCH   7  25
TORSDOF 10
ENDMDL
MODEL 3
REMARK VINA RESULT:      -5.4      2.043      3.122
REMARK  10 active torsions:
REMARK  status: ('A' for Active; 'I' for Inactive)
REMARK    1  A    between atoms: C6_7  and  C7_8 
REMARK    2  A    between atoms: C8_9  and  C9_10 
REMARK    3  A    between atoms: C9_10  and  O2_12 
REMARK    4  A    between atoms: O2_12  and  C10_13 
REMARK    5  A    between atoms: C12_15  and  C13_16 
REMARK    6  A    between atoms: C13_16  and  O4_18 
REMARK    7  A    between atoms: C17_23  and  C18_24 
REMARK    8  A    between atoms: C18_24  and  O5_25 
REMARK    9  A    between atoms: O5_25  and  C19_26 
REMARK   10  A    between atoms: C20_27  and  N2_28 
ROOT
ATOM      1  C7  UNK     1       0.363  36.036 234.860  1.00  0.00     0.030 C 
ATOM      2  C8  UNK     1       1.163  36.814 235.769  1.00  0.00     0.052 C 
ATOM      3  C12 UNK     1      -0.113  34.797 235.431  1.00  0.00     0.049 C 
ATOM      4  C15 UNK     1       0.969  34.157 236.006  1.00  0.00     0.018 C 
ATOM      5  C16 UNK     1       0.828  32.766 236.548  1.00  0.00     0.069 C 
ATOM      6  N1  UNK     1       2.155  34.758 236.081  1.00  0.00    -0.360 N 
ATOM      7  C17 UNK     1       2.150  36.049 236.295  1.00  0.00     0.046 C 
ATOM      8  H25 UNK     1       3.009  34.247 235.980  1.00  0.00     0.165 HD
ENDROOT
BRANCH   1   9
ATOM      9  C6  UNK     1      -0.039  36.558 233.479  1.00  0.00     0.115 A 
ATOM     10  C1  UNK     1      -1.131  37.276 233.027  1.00  0.00     0.021 A 
ATOM     11 Cl1  UNK     1      -2.439  37.770 233.996  1.00  0.00    -0.088 Cl
ATOM     12  C2  UNK     1      -1.215  37.614 231.695  1.00  0.00     0.020 A 
ATOM     13  C3  UNK     1      -0.233  37.258 230.810  1.00  0.00     0.001 A 
ATOM     14  C4  UNK     1       0.856  36.554 231.254  1.00  0.00    -0.003 A 
ATOM     15  C5  UNK     1       0.944  36.215 232.582  1.00  0.00    -0.015 A 
ENDBRANCH   1   9
BRANCH   2  16
ATOM     16  C9  UNK     1       1.172  38.246 235.824  1.00  0.00     0.292 C 
ATOM     17  O1  UNK     1       2.076  38.828 235.303  1.00  0.00    -0.260 OA
BRANCH  16  18
ATOM     18  O2  UNK     1       0.291  38.879 236.551  1.00  0.00    -0.318 OA
BRANCH  18  19
ATOM     19  C10 UNK     1       0.998  39.638 237.406  1.00  0.00     0.174 C 
ATOM     20  C11 UNK     1       0.280  39.681 238.741  1.00  0.00     0.034 C 
ENDBRANCH  18  19
ENDBRANCH  16  18
ENDBRANCH   2  16
BRANCH   3  21
ATOM     21  C13 UNK     1      -1.459  34.194 235.145  1.00  0.00     0.291 C 
ATOM     22  O3  UNK     1      -1.641  33.478 234.181  1.00  0.00    -0.260 OA
BRANCH  21  23
ATOM     23  O4  UNK     1      -2.481  34.551 235.901  1.00  0.00    -0.323 OA
ATOM     24  C14 UNK     1      -2.897  33.386 236.479  1.00  0.00     0.213 C 
ENDBRANCH  21  23
ENDBRANCH   3  21
BRANCH   7  25
ATOM     25  C18 UNK     1       3.267  36.611 237.064  1.00  0.00     0.225 C 
BRANCH  25  26
ATOM     26  O5  UNK     1       3.507  35.933 238.167  1.00  0.00    -0.384 OA
BRANCH  26  27
ATOM     27  C19 UNK     1       2.927  36.507 239.354  1.00  0.00     0.197 C 
ATOM     28  C20 UNK     1       3.307  37.652 239.860  1.00  0.00     0.292 C 
BRANCH  28  29
ATOM     29  N2  UNK     1       4.691  37.739 240.257  1.00  0.00     0.080 NA
ATOM     30  H22 UNK     1       5.275  37.485 239.486  1.00  0.00     0.312 HD
ATOM     31  H23 UNK     1       4.899  38.675 240.538  1.00  0.00     0.312 HD
ENDBRANCH  28  29
ENDBRANCH  26  27
ENDBRANCH  25  26
ENDBRANCH   7  25
TORSDOF 10
ENDMDL
MODEL 4
REMARK VINA RESULT:      -5.3      2.672      6.476
REMARK  10 active torsions:
REMARK  status: ('A' for Active; 'I' for Inactive)
REMARK    1  A    between atoms: C6_7  and  C7_8 
REMARK    2  A    between atoms: C8_9  and  C9_10 
REMARK    3  A    between atoms: C9_10  and  O2_12 
REMARK    4  A    between atoms: O2_12  and  C10_13 
REMARK    5  A    between atoms: C12_15  and  C13_16 
REMARK    6  A    between atoms: C13_16  and  O4_18 
REMARK    7  A    between atoms: C17_23  and  C18_24 
REMARK    8  A    between atoms: C18_24  and  O5_25 
REMARK    9  A    between atoms: O5_25  and  C19_26 
REMARK   10  A    between atoms: C20_27  and  N2_28 
ROOT
ATOM      1  C7  UNK     1       0.861  36.099 236.521  1.00  0.00     0.030 C 
ATOM      2  C8  UNK     1       0.325  34.876 237.058  1.00  0.00     0.052 C 
ATOM      3  C12 UNK     1       0.408  36.383 235.179  1.00  0.00     0.049 C 
ATOM      4  C15 UNK     1       0.595  35.242 234.422  1.00  0.00     0.018 C 
ATOM      5  C16 UNK     1       0.364  35.266 232.941  1.00  0.00     0.069 C 
ATOM      6  N1  UNK     1       0.991  34.104 234.991  1.00  0.00    -0.360 N 
ATOM      7  C17 UNK     1       0.534  33.855 236.192  1.00  0.00     0.046 C 
ATOM      8  H25 UNK     1       1.608  33.471 234.524  1.00  0.00     0.165 HD
ENDROOT
BRANCH   1   9
ATOM      9  C6  UNK     1       1.714  37.052 237.361  1.00  0.00     0.115 A 
ATOM     10  C1  UNK     1       1.413  38.190 238.088  1.00  0.00     0.021 A 
ATOM     11 Cl1  UNK     1      -0.132  38.890 238.203  1.00  0.00    -0.088 Cl
ATOM     12  C2  UNK     1       2.418  38.846 238.763  1.00  0.00     0.020 A 
ATOM     13  C3  UNK     1       3.708  38.390 238.733  1.00  0.00     0.001 A 
ATOM     14  C4  UNK     1       4.010  37.259 238.021  1.00  0.00    -0.003 A 
ATOM     15  C5  UNK     1       3.011  36.600 237.348  1.00  0.00    -0.015 A 
ENDBRANCH   1   9
BRANCH   2  16
ATOM     16  C9  UNK     1      -0.021  34.675 238.434  1.00  0.00     0.292 C 
ATOM     17  O1  UNK     1      -1.035  35.158 238.841  1.00  0.00    -0.260 OA
BRANCH  16  18
ATOM     18  O2  UNK     1       0.829  34.105 239.246  1.00  0.00    -0.318 OA
BRANCH  18  19
ATOM     19  C10 UNK     1       1.092  35.014 240.200  1.00  0.00     0.174 C 
ATOM     20  C11 UNK     1       2.553  34.910 240.594  1.00  0.00     0.034 C 
ENDBRANCH  18  19
ENDBRANCH  16  18
ENDBRANCH   2  16
BRANCH   3  21
ATOM     21  C13 UNK     1       0.110  37.761 234.658  1.00  0.00     0.291 C 
ATOM     22  O3  UNK     1       1.000  38.535 234.370  1.00  0.00    -0.260 OA
BRANCH  21  23
ATOM     23  O4  UNK     1      -1.147  38.163 234.628  1.00  0.00    -0.323 OA
ATOM     24  C14 UNK     1      -1.340  38.571 233.338  1.00  0.00     0.213 C 
ENDBRANCH  21  23
ENDBRANCH   3  21
BRANCH   7  25
ATOM     25  C18 UNK     1       0.320  32.448 236.555  1.00  0.00     0.225 C 
BRANCH  25  26
ATOM     26  O5  UNK     1       0.507  31.635 235.537  1.00  0.00    -0.384 OA
BRANCH  26  27
ATOM     27  C19 UNK     1       1.582  30.694 235.718  1.00  0.00     0.197 C 
ATOM     28  C20 UNK     1       2.826  31.050 235.908  1.00  0.00     0.292 C 
BRANCH  28  29
ATOM     29  N2  UNK     1       3.426  31.832 234.855  1.00  0.00     0.080 NA
ATOM     30  H22 UNK     1       3.432  32.797 235.118  1.00  0.00     0.312 HD
ATOM     31  H23 UNK     1       4.365  31.523 234.703  1.00  0.00     0.312 HD
ENDBRANCH  28  29
ENDBRANCH  26  27
ENDBRANCH  25  26
ENDBRANCH   7  25
TORSDOF 10
ENDMDL
MODEL 5
REMARK VINA RESULT:      -5.1      2.285      3.533
REMARK  10 active torsions:
REMARK  status: ('A' for Active; 'I' for Inactive)
REMARK    1  A    between atoms: C6_7  and  C7_8 
REMARK    2  A    between atoms: C8_9  and  C9_10 
REMARK    3  A    between atoms: C9_10  and  O2_12 
REMARK    4  A    between atoms: O2_12  and  C10_13 
REMARK    5  A    between atoms: C12_15  and  C13_16 
REMARK    6  A    between atoms: C13_16  and  O4_18 
REMARK    7  A    between atoms: C17_23  and  C18_24 
REMARK    8  A    between atoms: C18_24  and  O5_25 
REMARK    9  A    between atoms: O5_25  and  C19_26 
REMARK   10  A    between atoms: C20_27  and  N2_28 
ROOT
ATOM      1  C7  UNK     1      -0.020  36.122 234.417  1.00  0.00     0.030 C 
ATOM      2  C8  UNK     1       0.760  36.750 235.450  1.00  0.00     0.052 C 
ATOM      3  C12 UNK     1      -0.748  34.960 234.874  1.00  0.00     0.049 C 
ATOM      4  C15 UNK     1       0.140  34.150 235.556  1.00  0.00     0.018 C 
ATOM      5  C16 UNK     1      -0.278  32.787 236.021  1.00  0.00     0.069 C 
ATOM      6  N1  UNK     1       1.383  34.560 235.805  1.00  0.00    -0.360 N 
ATOM      7  C17 UNK     1       1.544  35.832 236.067  1.00  0.00     0.046 C 
ATOM      8  H25 UNK     1       2.157  33.926 235.792  1.00  0.00     0.165 HD
ENDROOT
BRANCH   1   9
ATOM      9  C6  UNK     1      -0.155  36.727 233.018  1.00  0.00     0.115 A 
ATOM     10  C1  UNK     1      -0.916  37.765 232.511  1.00  0.00     0.021 A 
ATOM     11 Cl1  UNK     1      -2.023  38.688 233.413  1.00  0.00    -0.088 Cl
ATOM     12  C2  UNK     1      -0.815  38.089 231.177  1.00  0.00     0.020 A 
ATOM     13  C3  UNK     1       0.029  37.406 230.343  1.00  0.00     0.001 A 
ATOM     14  C4  UNK     1       0.791  36.382 230.841  1.00  0.00    -0.003 A 
ATOM     15  C5  UNK     1       0.695  36.056 232.171  1.00  0.00    -0.015 A 
ENDBRANCH   1   9
BRANCH   2  16
ATOM     16  C9  UNK     1       0.977  38.162 235.561  1.00  0.00     0.292 C 
ATOM     17  O1  UNK     1       1.937  38.633 235.027  1.00  0.00    -0.260 OA
BRANCH  16  18
ATOM     18  O2  UNK     1       0.222  38.880 236.349  1.00  0.00    -0.318 OA
BRANCH  18  19
ATOM     19  C10 UNK     1       1.064  39.535 237.168  1.00  0.00     0.174 C 
ATOM     20  C11 UNK     1       0.458  39.593 238.557  1.00  0.00     0.034 C 
ENDBRANCH  18  19
ENDBRANCH  16  18
ENDBRANCH   2  16
BRANCH   3  21
ATOM     21  C13 UNK     1      -2.120  34.577 234.396  1.00  0.00     0.291 C 
ATOM     22  O3  UNK     1      -2.277  33.778 233.495  1.00  0.00    -0.260 OA
BRANCH  21  23
ATOM     23  O4  UNK     1      -3.161  35.216 234.896  1.00  0.00    -0.323 OA
ATOM     24  C14 UNK     1      -3.625  34.388 235.878  1.00  0.00     0.213 C 
ENDBRANCH  21  23
ENDBRANCH   3  21
BRANCH   7  25
ATOM     25  C18 UNK     1       2.622  36.200 236.992  1.00  0.00     0.225 C 
BRANCH  25  26
ATOM     26  O5  UNK     1       2.189  36.365 238.225  1.00  0.00    -0.384 OA
BRANCH  26  27
ATOM     27  C19 UNK     1       2.674  35.385 239.162  1.00  0.00     0.197 C 
ATOM     28  C20 UNK     1       1.893  34.563 239.813  1.00  0.00     0.292 C 
BRANCH  28  29
ATOM     29  N2  UNK     1       0.903  35.174 240.665  1.00  0.00     0.080 NA
ATOM     30  H22 UNK     1       0.464  34.472 241.225  1.00  0.00     0.312 HD
ATOM     31  H23 UNK     1       1.344  35.847 241.259  1.00  0.00     0.312 HD
ENDBRANCH  28  29
ENDBRANCH  26  27
ENDBRANCH  25  26
ENDBRANCH   7  25
TORSDOF 10
ENDMDL
MODEL 6
REMARK VINA RESULT:      -5.1      5.705      7.634
REMARK  10 active torsions:
REMARK  status: ('A' for Active; 'I' for Inactive)
REMARK    1  A    between atoms: C6_7  and  C7_8 
REMARK    2  A    between atoms: C8_9  and  C9_10 
REMARK    3  A    between atoms: C9_10  and  O2_12 
REMARK    4  A    between atoms: O2_12  and  C10_13 
REMARK    5  A    between atoms: C12_15  and  C13_16 
REMARK    6  A    between atoms: C13_16  and  O4_18 
REMARK    7  A    between atoms: C17_23  and  C18_24 
REMARK    8  A    between atoms: C18_24  and  O5_25 
REMARK    9  A    between atoms: O5_25  and  C19_26 
REMARK   10  A    between atoms: C20_27  and  N2_28 
ROOT
ATOM      1  C7  UNK     1      -3.377  38.602 229.684  1.00  0.00     0.030 C 
ATOM      2  C8  UNK     1      -3.442  39.997 229.333  1.00  0.00     0.052 C 
ATOM      3  C12 UNK     1      -3.237  38.374 231.104  1.00  0.00     0.049 C 
ATOM      4  C15 UNK     1      -2.207  39.175 231.558  1.00  0.00     0.018 C 
ATOM      5  C16 UNK     1      -1.713  39.050 232.969  1.00  0.00     0.069 C 
ATOM      6  N1  UNK     1      -1.628  40.064 230.753  1.00  0.00    -0.360 N 
ATOM      7  C17 UNK     1      -2.402  40.667 229.887  1.00  0.00     0.046 C 
ATOM      8  H25 UNK     1      -0.649  40.262 230.807  1.00  0.00     0.165 HD
ENDROOT
BRANCH   1   9
ATOM      9  C6  UNK     1      -3.575  37.493 228.649  1.00  0.00     0.115 A 
ATOM     10  C1  UNK     1      -4.702  36.942 228.065  1.00  0.00     0.021 A 
ATOM     11 Cl1  UNK     1      -6.302  37.394 228.424  1.00  0.00    -0.088 Cl
ATOM     12  C2  UNK     1      -4.559  35.934 227.138  1.00  0.00     0.020 A 
ATOM     13  C3  UNK     1      -3.323  35.471 226.779  1.00  0.00     0.001 A 
ATOM     14  C4  UNK     1      -2.202  36.018 227.347  1.00  0.00    -0.003 A 
ATOM     15  C5  UNK     1      -2.339  37.025 228.272  1.00  0.00    -0.015 A 
ENDBRANCH   1   9
BRANCH   2  16
ATOM     16  C9  UNK     1      -4.236  40.530 228.266  1.00  0.00     0.292 C 
ATOM     17  O1  UNK     1      -5.381  40.793 228.487  1.00  0.00    -0.260 OA
BRANCH  16  18
ATOM     18  O2  UNK     1      -3.752  40.585 227.054  1.00  0.00    -0.318 OA
BRANCH  18  19
ATOM     19  C10 UNK     1      -4.804  40.430 226.231  1.00  0.00     0.174 C 
ATOM     20  C11 UNK     1      -4.517  39.293 225.270  1.00  0.00     0.034 C 
ENDBRANCH  18  19
ENDBRANCH  16  18
ENDBRANCH   2  16
BRANCH   3  21
ATOM     21  C13 UNK     1      -3.878  37.236 231.846  1.00  0.00     0.291 C 
ATOM     22  O3  UNK     1      -4.804  37.419 232.610  1.00  0.00    -0.260 OA
BRANCH  21  23
ATOM     23  O4  UNK     1      -3.339  36.035 231.743  1.00  0.00    -0.323 OA
ATOM     24  C14 UNK     1      -4.396  35.213 231.473  1.00  0.00     0.213 C 
ENDBRANCH  21  23
ENDBRANCH   3  21
BRANCH   7  25
ATOM     25  C18 UNK     1      -2.059  42.046 229.519  1.00  0.00     0.225 C 
BRANCH  25  26
ATOM     26  O5  UNK     1      -1.030  42.505 230.200  1.00  0.00    -0.384 OA
BRANCH  26  27
ATOM     27  C19 UNK     1      -0.016  43.133 229.393  1.00  0.00     0.197 C 
ATOM     28  C20 UNK     1       1.120  43.568 229.875  1.00  0.00     0.292 C 
BRANCH  28  29
ATOM     29  N2  UNK     1       1.026  44.582 230.897  1.00  0.00     0.080 NA
ATOM     30  H22 UNK     1       1.720  45.283 230.736  1.00  0.00     0.312 HD
ATOM     31  H23 UNK     1       0.118  44.999 230.870  1.00  0.00     0.312 HD
ENDBRANCH  28  29
ENDBRANCH  26  27
ENDBRANCH  25  26
ENDBRANCH   7  25
TORSDOF 10
ENDMDL
MODEL 7
REMARK VINA RESULT:      -5.1      2.323      3.833
REMARK  10 active torsions:
REMARK  status: ('A' for Active; 'I' for Inactive)
REMARK    1  A    between atoms: C6_7  and  C7_8 
REMARK    2  A    between atoms: C8_9  and  C9_10 
REMARK    3  A    between atoms: C9_10  and  O2_12 
REMARK    4  A    between atoms: O2_12  and  C10_13 
REMARK    5  A    between atoms: C12_15  and  C13_16 
REMARK    6  A    between atoms: C13_16  and  O4_18 
REMARK    7  A    between atoms: C17_23  and  C18_24 
REMARK    8  A    between atoms: C18_24  and  O5_25 
REMARK    9  A    between atoms: O5_25  and  C19_26 
REMARK   10  A    between atoms: C20_27  and  N2_28 
ROOT
ATOM      1  C7  UNK     1       1.599  34.582 236.981  1.00  0.00     0.030 C 
ATOM      2  C8  UNK     1       1.599  35.973 236.613  1.00  0.00     0.052 C 
ATOM      3  C12 UNK     1       1.634  34.367 238.410  1.00  0.00     0.049 C 
ATOM      4  C15 UNK     1       2.653  35.144 238.926  1.00  0.00     0.018 C 
ATOM      5  C16 UNK     1       3.045  35.022 240.369  1.00  0.00     0.069 C 
ATOM      6  N1  UNK     1       3.312  36.007 238.154  1.00  0.00    -0.360 N 
ATOM      7  C17 UNK     1       2.617  36.621 237.230  1.00  0.00     0.046 C 
ATOM      8  H25 UNK     1       4.290  36.178 238.273  1.00  0.00     0.165 HD
ENDROOT
BRANCH   1   9
ATOM      9  C6  UNK     1       1.440  33.466 235.947  1.00  0.00     0.115 A 
ATOM     10  C1  UNK     1       0.359  33.012 235.212  1.00  0.00     0.021 A 
ATOM     11 Cl1  UNK     1      -1.221  33.631 235.324  1.00  0.00    -0.088 Cl
ATOM     12  C2  UNK     1       0.531  31.966 234.333  1.00  0.00     0.020 A 
ATOM     13  C3  UNK     1       1.752  31.372 234.167  1.00  0.00     0.001 A 
ATOM     14  C4  UNK     1       2.828  31.823 234.886  1.00  0.00    -0.003 A 
ATOM     15  C5  UNK     1       2.663  32.866 235.763  1.00  0.00    -0.015 A 
ENDBRANCH   1   9
BRANCH   2  16
ATOM     16  C9  UNK     1       0.896  36.516 235.488  1.00  0.00     0.292 C 
ATOM     17  O1  UNK     1      -0.212  36.932 235.657  1.00  0.00    -0.260 OA
BRANCH  16  18
ATOM     18  O2  UNK     1       1.404  36.419 234.289  1.00  0.00    -0.318 OA
BRANCH  18  19
ATOM     19  C10 UNK     1       0.368  36.534 233.440  1.00  0.00     0.174 C 
ATOM     20  C11 UNK     1       0.417  35.394 232.442  1.00  0.00     0.034 C 
ENDBRANCH  18  19
ENDBRANCH  16  18
ENDBRANCH   2  16
BRANCH   3  21
ATOM     21  C13 UNK     1       0.910  33.257 239.118  1.00  0.00     0.291 C 
ATOM     22  O3  UNK     1       1.327  32.117 239.100  1.00  0.00    -0.260 OA
BRANCH  21  23
ATOM     23  O4  UNK     1      -0.260  33.521 239.669  1.00  0.00    -0.323 OA
ATOM     24  C14 UNK     1      -1.159  32.856 238.885  1.00  0.00     0.213 C 
ENDBRANCH  21  23
ENDBRANCH   3  21
BRANCH   7  25
ATOM     25  C18 UNK     1       3.024  37.985 236.873  1.00  0.00     0.225 C 
BRANCH  25  26
ATOM     26  O5  UNK     1       2.649  38.871 237.771  1.00  0.00    -0.384 OA
BRANCH  26  27
ATOM     27  C19 UNK     1       1.486  39.636 237.402  1.00  0.00     0.197 C 
ATOM     28  C20 UNK     1       0.396  39.683 238.124  1.00  0.00     0.292 C 
BRANCH  28  29
ATOM     29  N2  UNK     1      -0.264  38.421 238.353  1.00  0.00     0.080 NA
ATOM     30  H22 UNK     1      -0.823  38.187 237.557  1.00  0.00     0.312 HD
ATOM     31  H23 UNK     1       0.421  37.708 238.500  1.00  0.00     0.312 HD
ENDBRANCH  28  29
ENDBRANCH  26  27
ENDBRANCH  25  26
ENDBRANCH   7  25
TORSDOF 10
ENDMDL
MODEL 8
REMARK VINA RESULT:      -5.1      2.010      2.814
REMARK  10 active torsions:
REMARK  status: ('A' for Active; 'I' for Inactive)
REMARK    1  A    between atoms: C6_7  and  C7_8 
REMARK    2  A    between atoms: C8_9  and  C9_10 
REMARK    3  A    between atoms: C9_10  and  O2_12 
REMARK    4  A    between atoms: O2_12  and  C10_13 
REMARK    5  A    between atoms: C12_15  and  C13_16 
REMARK    6  A    between atoms: C13_16  and  O4_18 
REMARK    7  A    between atoms: C17_23  and  C18_24 
REMARK    8  A    between atoms: C18_24  and  O5_25 
REMARK    9  A    between atoms: O5_25  and  C19_26 
REMARK   10  A    between atoms: C20_27  and  N2_28 
ROOT
ATOM      1  C7  UNK     1       0.845  34.851 235.506  1.00  0.00     0.030 C 
ATOM      2  C8  UNK     1       0.937  35.455 236.809  1.00  0.00     0.052 C 
ATOM      3  C12 UNK     1       1.360  33.501 235.462  1.00  0.00     0.049 C 
ATOM      4  C15 UNK     1       2.609  33.509 236.053  1.00  0.00     0.018 C 
ATOM      5  C16 UNK     1       3.472  32.283 236.022  1.00  0.00     0.069 C 
ATOM      6  N1  UNK     1       3.073  34.605 236.651  1.00  0.00    -0.360 N 
ATOM      7  C17 UNK     1       2.201  35.345 237.287  1.00  0.00     0.046 C 
ATOM      8  H25 UNK     1       4.042  34.851 236.616  1.00  0.00     0.165 HD
ENDROOT
BRANCH   1   9
ATOM      9  C6  UNK     1       0.142  35.543 234.336  1.00  0.00     0.115 A 
ATOM     10  C1  UNK     1      -1.169  35.546 233.896  1.00  0.00     0.021 A 
ATOM     11 Cl1  UNK     1      -2.435  34.660 234.607  1.00  0.00    -0.088 Cl
ATOM     12  C2  UNK     1      -1.509  36.289 232.788  1.00  0.00     0.020 A 
ATOM     13  C3  UNK     1      -0.574  37.031 232.118  1.00  0.00     0.001 A 
ATOM     14  C4  UNK     1       0.725  37.038 232.554  1.00  0.00    -0.003 A 
ATOM     15  C5  UNK     1       1.069  36.299 233.659  1.00  0.00    -0.015 A 
ENDBRANCH   1   9
BRANCH   2  16
ATOM     16  C9  UNK     1      -0.027  36.364 237.354  1.00  0.00     0.292 C 
ATOM     17  O1  UNK     1       0.000  37.504 236.994  1.00  0.00    -0.260 OA
BRANCH  16  18
ATOM     18  O2  UNK     1      -0.812  35.982 238.325  1.00  0.00    -0.318 OA
BRANCH  18  19
ATOM     19  C10 UNK     1      -2.058  36.308 237.941  1.00  0.00     0.174 C 
ATOM     20  C11 UNK     1      -3.046  35.394 238.639  1.00  0.00     0.034 C 
ENDBRANCH  18  19
ENDBRANCH  16  18
ENDBRANCH   2  16
BRANCH   3  21
ATOM     21  C13 UNK     1       0.772  32.397 234.631  1.00  0.00     0.291 C 
ATOM     22  O3  UNK     1       1.213  32.126 233.533  1.00  0.00    -0.260 OA
BRANCH  21  23
ATOM     23  O4  UNK     1      -0.318  31.793 235.068  1.00  0.00    -0.323 OA
ATOM     24  C14 UNK     1       0.143  30.657 235.669  1.00  0.00     0.213 C 
ENDBRANCH  21  23
ENDBRANCH   3  21
BRANCH   7  25
ATOM     25  C18 UNK     1       2.667  36.069 238.475  1.00  0.00     0.225 C 
BRANCH  25  26
ATOM     26  O5  UNK     1       3.823  36.667 238.276  1.00  0.00    -0.384 OA
BRANCH  26  27
ATOM     27  C19 UNK     1       3.797  38.093 238.477  1.00  0.00     0.197 C 
ATOM     28  C20 UNK     1       2.853  38.869 238.010  1.00  0.00     0.292 C 
BRANCH  28  29
ATOM     29  N2  UNK     1       2.688  38.870 236.577  1.00  0.00     0.080 NA
ATOM     30  H22 UNK     1       2.092  39.626 236.311  1.00  0.00     0.312 HD
ATOM     31  H23 UNK     1       3.580  38.979 236.139  1.00  0.00     0.312 HD
ENDBRANCH  28  29
ENDBRANCH  26  27
ENDBRANCH  25  26
ENDBRANCH   7  25
TORSDOF 10
ENDMDL
MODEL 9
REMARK VINA RESULT:      -5.0      3.145      6.303
REMARK  10 active torsions:
REMARK  status: ('A' for Active; 'I' for Inactive)
REMARK    1  A    between atoms: C6_7  and  C7_8 
REMARK    2  A    between atoms: C8_9  and  C9_10 
REMARK    3  A    between atoms: C9_10  and  O2_12 
REMARK    4  A    between atoms: O2_12  and  C10_13 
REMARK    5  A    between atoms: C12_15  and  C13_16 
REMARK    6  A    between atoms: C13_16  and  O4_18 
REMARK    7  A    between atoms: C17_23  and  C18_24 
REMARK    8  A    between atoms: C18_24  and  O5_25 
REMARK    9  A    between atoms: O5_25  and  C19_26 
REMARK   10  A    between atoms: C20_27  and  N2_28 
ROOT
ATOM      1  C7  UNK     1       1.550  35.174 236.923  1.00  0.00     0.030 C 
ATOM      2  C8  UNK     1       0.116  35.130 237.030  1.00  0.00     0.052 C 
ATOM      3  C12 UNK     1       2.063  36.495 236.639  1.00  0.00     0.049 C 
ATOM      4  C15 UNK     1       1.348  37.002 235.571  1.00  0.00     0.018 C 
ATOM      5  C16 UNK     1       1.749  38.300 234.935  1.00  0.00     0.069 C 
ATOM      6  N1  UNK     1       0.297  36.346 235.081  1.00  0.00    -0.360 N 
ATOM      7  C17 UNK     1      -0.452  35.705 235.942  1.00  0.00     0.046 C 
ATOM      8  H25 UNK     1       0.090  36.343 234.102  1.00  0.00     0.165 HD
ENDROOT
BRANCH   1   9
ATOM      9  C6  UNK     1       2.427  33.956 237.221  1.00  0.00     0.115 A 
ATOM     10  C1  UNK     1       3.015  33.482 238.380  1.00  0.00     0.021 A 
ATOM     11 Cl1  UNK     1       2.920  34.240 239.899  1.00  0.00    -0.088 Cl
ATOM     12  C2  UNK     1       3.761  32.326 238.335  1.00  0.00     0.020 A 
ATOM     13  C3  UNK     1       3.927  31.633 237.167  1.00  0.00     0.001 A 
ATOM     14  C4  UNK     1       3.340  32.094 236.017  1.00  0.00    -0.003 A 
ATOM     15  C5  UNK     1       2.594  33.246 236.056  1.00  0.00    -0.015 A 
ENDBRANCH   1   9
BRANCH   2  16
ATOM     16  C9  UNK     1      -0.606  34.281 237.930  1.00  0.00     0.292 C 
ATOM     17  O1  UNK     1      -0.803  34.670 239.043  1.00  0.00    -0.260 OA
BRANCH  16  18
ATOM     18  O2  UNK     1      -0.907  33.059 237.580  1.00  0.00    -0.318 OA
BRANCH  18  19
ATOM     19  C10 UNK     1      -0.561  32.282 238.621  1.00  0.00     0.174 C 
ATOM     20  C11 UNK     1       0.183  31.065 238.106  1.00  0.00     0.034 C 
ENDBRANCH  18  19
ENDBRANCH  16  18
ENDBRANCH   2  16
BRANCH   3  21
ATOM     21  C13 UNK     1       3.346  37.044 237.196  1.00  0.00     0.291 C 
ATOM     22  O3  UNK     1       4.385  36.983 236.572  1.00  0.00    -0.260 OA
BRANCH  21  23
ATOM     23  O4  UNK     1       3.350  37.495 238.437  1.00  0.00    -0.323 OA
ATOM     24  C14 UNK     1       3.324  38.854 238.302  1.00  0.00     0.213 C 
ENDBRANCH  21  23
ENDBRANCH   3  21
BRANCH   7  25
ATOM     25  C18 UNK     1      -1.886  35.600 235.644  1.00  0.00     0.225 C 
BRANCH  25  26
ATOM     26  O5  UNK     1      -2.170  35.973 234.414  1.00  0.00    -0.384 OA
BRANCH  26  27
ATOM     27  C19 UNK     1      -3.031  37.124 234.326  1.00  0.00     0.197 C 
ATOM     28  C20 UNK     1      -2.768  38.165 233.580  1.00  0.00     0.292 C 
BRANCH  28  29
ATOM     29  N2  UNK     1      -1.540  38.862 233.879  1.00  0.00     0.080 NA
ATOM     30  H22 UNK     1      -0.978  38.301 234.486  1.00  0.00     0.312 HD
ATOM     31  H23 UNK     1      -1.042  39.038 233.031  1.00  0.00     0.312 HD
ENDBRANCH  28  29
ENDBRANCH  26  27
ENDBRANCH  25  26
ENDBRANCH   7  25
TORSDOF 10
ENDMDL
