MODEL 1
REMARK VINA RESULT:      -9.1      0.000      0.000
REMARK  6 active torsions:
REMARK  status: ('A' for Active; 'I' for Inactive)
REMARK    1  A    between atoms: C1_2  and  C2_3 
REMARK       I    between atoms: C1_2  and  N3_21 
REMARK    2  A    between atoms: N3_21  and  C17_22 
REMARK    3  A    between atoms: C17_22  and  C18_24 
REMARK    4  A    between atoms: C22_30  and  C23_31 
REMARK    5  A    between atoms: C23_31  and  C24_32 
REMARK    6  A    between atoms: C32_42  and  O5_43 
ROOT
ATOM      1  C17 UNK     1      -0.472  36.873 235.979  1.00  0.00     0.227 A 
ATOM      2  O2  UNK     1       0.534  37.758 236.505  1.00  0.00    -0.295 OA
ATOM      3  C21 UNK     1       0.159  35.516 236.242  1.00  0.00     0.281 A 
ATOM      4  O3  UNK     1      -0.391  34.460 235.943  1.00  0.00    -0.268 OA
ATOM      5  N4  UNK     1       1.350  35.667 236.826  1.00  0.00    -0.277 N 
ATOM      6  C22 UNK     1       2.114  34.625 237.528  1.00  0.00     0.185 C 
ATOM      7  C27 UNK     1       2.838  35.122 238.780  1.00  0.00     0.243 C 
ATOM      8  O4  UNK     1       3.505  34.343 239.457  1.00  0.00    -0.271 OA
ATOM      9  N5  UNK     1       2.770  36.424 239.119  1.00  0.00    -0.338 N 
ATOM     10  C28 UNK     1       3.573  37.101 240.137  1.00  0.00     0.127 C 
ATOM     11  C29 UNK     1       3.104  38.556 240.168  1.00  0.00     0.022 C 
ATOM     12  C30 UNK     1       2.293  38.752 238.891  1.00  0.00     0.034 C 
ATOM     13  C31 UNK     1       1.798  37.349 238.529  1.00  0.00     0.173 C 
ATOM     14  C32 UNK     1       1.683  37.067 237.032  1.00  0.00     0.276 A 
ENDROOT
BRANCH   1  15
ATOM     15  N3  UNK     1      -0.716  37.231 234.585  1.00  0.00    -0.320 N 
ATOM     16  C1  UNK     1       0.103  37.086 233.534  1.00  0.00     0.229 C 
ATOM     17  O1  UNK     1       1.323  37.250 233.579  1.00  0.00    -0.273 OA
ATOM     18  H15 UNK     1      -1.609  37.636 234.388  1.00  0.00     0.166 HD
BRANCH  16  19
ATOM     19  C2  UNK     1      -0.610  36.770 232.245  1.00  0.00     0.118 C 
ATOM     20  C3  UNK     1      -1.963  36.182 232.675  1.00  0.00     0.135 C 
ATOM     21  N1  UNK     1      -2.812  36.092 231.497  1.00  0.00    -0.407 N 
ATOM     22  C4  UNK     1      -3.720  34.950 231.456  1.00  0.00     0.144 C 
ATOM     23  C15 UNK     1      -3.192  37.445 231.048  1.00  0.00     0.116 C 
ATOM     24  C6  UNK     1      -1.961  38.357 230.862  1.00  0.00    -0.027 C 
ATOM     25  C14 UNK     1      -4.148  37.295 229.832  1.00  0.00     0.072 C 
ATOM     26  C5  UNK     1      -0.786  38.032 231.422  1.00  0.00    -0.001 C 
ATOM     27  C7  UNK     1      -2.094  39.650 230.100  1.00  0.00    -0.015 A 
ATOM     28  C8  UNK     1      -1.287  40.790 230.125  1.00  0.00     0.013 A 
ATOM     29  C12 UNK     1      -3.291  39.684 229.273  1.00  0.00     0.011 A 
ATOM     30  C9  UNK     1      -1.649  41.900 229.324  1.00  0.00     0.003 A 
ATOM     31  C10 UNK     1      -2.802  41.949 228.503  1.00  0.00     0.030 A 
ATOM     32  C11 UNK     1      -3.673  40.847 228.440  1.00  0.00     0.044 A 
ATOM     33  N2  UNK     1      -4.829  40.525 227.793  1.00  0.00    -0.349 N 
ATOM     34  C16 UNK     1      -5.190  39.263 228.163  1.00  0.00     0.087 A 
ATOM     35  H14 UNK     1      -5.328  41.114 227.156  1.00  0.00     0.166 HD
ATOM     36  C13 UNK     1      -4.264  38.620 229.120  1.00  0.00    -0.008 A 
ATOM     37 Br1  UNK     1      -6.820  38.307 227.507  1.00  0.00    -0.031 Br
ENDBRANCH  16  19
ENDBRANCH   1  15
BRANCH   1  38
ATOM     38  C18 UNK     1      -1.805  36.988 236.745  1.00  0.00     0.043 C 
ATOM     39  C19 UNK     1      -1.758  36.374 238.151  1.00  0.00     0.015 C 
ATOM     40  C20 UNK     1      -2.943  36.347 235.980  1.00  0.00     0.015 C 
ENDBRANCH   1  38
BRANCH  14  41
ATOM     41  O5  UNK     1       2.927  37.346 236.359  1.00  0.00    -0.347 OA
ATOM     42  H40 UNK     1       3.619  37.451 237.002  1.00  0.00     0.215 HD
ENDBRANCH  14  41
BRANCH   6  43
ATOM     43  C23 UNK     1       3.207  34.268 236.527  1.00  0.00     0.039 C 
BRANCH  43  44
ATOM     44  C24 UNK     1       3.261  32.802 236.133  1.00  0.00    -0.020 C 
ATOM     45  C25 UNK     1       2.287  32.597 234.988  1.00  0.00     0.009 C 
ATOM     46  C26 UNK     1       2.892  31.899 237.303  1.00  0.00     0.009 C 
ENDBRANCH  43  44
ENDBRANCH   6  43
TORSDOF 6
ENDMDL
MODEL 2
REMARK VINA RESULT:      -8.6      2.979      5.076
REMARK  6 active torsions:
REMARK  status: ('A' for Active; 'I' for Inactive)
REMARK    1  A    between atoms: C1_2  and  C2_3 
REMARK       I    between atoms: C1_2  and  N3_21 
REMARK    2  A    between atoms: N3_21  and  C17_22 
REMARK    3  A    between atoms: C17_22  and  C18_24 
REMARK    4  A    between atoms: C22_30  and  C23_31 
REMARK    5  A    between atoms: C23_31  and  C24_32 
REMARK    6  A    between atoms: C32_42  and  O5_43 
ROOT
ATOM      1  C17 UNK     1      -0.962  36.372 236.359  1.00  0.00     0.227 A 
ATOM      2  O2  UNK     1      -0.011  37.390 236.723  1.00  0.00    -0.295 OA
ATOM      3  C21 UNK     1      -0.141  35.110 236.568  1.00  0.00     0.281 A 
ATOM      4  O3  UNK     1      -0.593  33.986 236.373  1.00  0.00    -0.268 OA
ATOM      5  N4  UNK     1       1.088  35.423 236.982  1.00  0.00    -0.277 N 
ATOM      6  C22 UNK     1       2.059  34.508 237.600  1.00  0.00     0.185 C 
ATOM      7  C27 UNK     1       2.875  35.137 238.730  1.00  0.00     0.243 C 
ATOM      8  O4  UNK     1       3.715  34.469 239.330  1.00  0.00    -0.271 OA
ATOM      9  N5  UNK     1       2.695  36.434 239.043  1.00  0.00    -0.338 N 
ATOM     10  C28 UNK     1       3.536  37.242 239.926  1.00  0.00     0.127 C 
ATOM     11  C29 UNK     1       2.901  38.632 239.984  1.00  0.00     0.022 C 
ATOM     12  C30 UNK     1       1.913  38.679 238.823  1.00  0.00     0.034 C 
ATOM     13  C31 UNK     1       1.548  37.214 238.567  1.00  0.00     0.173 C 
ATOM     14  C32 UNK     1       1.273  36.860 237.106  1.00  0.00     0.276 A 
ENDROOT
BRANCH   1  15
ATOM     15  N3  UNK     1      -1.428  36.642 235.002  1.00  0.00    -0.320 N 
ATOM     16  C1  UNK     1      -0.742  37.162 233.975  1.00  0.00     0.229 C 
ATOM     17  O1  UNK     1       0.099  38.056 234.087  1.00  0.00    -0.273 OA
ATOM     18  H15 UNK     1      -2.382  36.408 234.814  1.00  0.00     0.166 HD
BRANCH  16  19
ATOM     19  C2  UNK     1      -1.139  36.607 232.633  1.00  0.00     0.118 C 
ATOM     20  C3  UNK     1      -0.126  37.201 231.643  1.00  0.00     0.135 C 
ATOM     21  N1  UNK     1      -0.279  36.513 230.370  1.00  0.00    -0.407 N 
ATOM     22  C4  UNK     1      -0.064  37.327 229.179  1.00  0.00     0.144 C 
ATOM     23  C15 UNK     1       0.190  35.119 230.494  1.00  0.00     0.116 C 
ATOM     24  C6  UNK     1      -0.475  34.391 231.681  1.00  0.00    -0.027 C 
ATOM     25  C14 UNK     1       0.067  34.447 229.099  1.00  0.00     0.072 C 
ATOM     26  C5  UNK     1      -1.077  35.092 232.655  1.00  0.00    -0.001 C 
ATOM     27  C7  UNK     1      -0.394  32.891 231.782  1.00  0.00    -0.015 A 
ATOM     28  C8  UNK     1      -0.549  32.058 232.893  1.00  0.00     0.013 A 
ATOM     29  C12 UNK     1      -0.042  32.269 230.514  1.00  0.00     0.011 A 
ATOM     30  C9  UNK     1      -0.394  30.660 232.726  1.00  0.00     0.003 A 
ATOM     31  C10 UNK     1      -0.064  30.036 231.498  1.00  0.00     0.030 A 
ATOM     32  C11 UNK     1       0.126  30.809 230.339  1.00  0.00     0.044 A 
ATOM     33  N2  UNK     1       0.434  30.585 229.030  1.00  0.00    -0.349 N 
ATOM     34  C16 UNK     1       0.472  31.787 228.387  1.00  0.00     0.087 A 
ATOM     35  H14 UNK     1       0.603  29.692 228.612  1.00  0.00     0.166 HD
ATOM     36  C13 UNK     1       0.178  32.950 229.252  1.00  0.00    -0.008 A 
ATOM     37 Br1  UNK     1       0.887  32.026 226.445  1.00  0.00    -0.031 Br
ENDBRANCH  16  19
ENDBRANCH   1  15
BRANCH   1  38
ATOM     38  C18 UNK     1      -2.187  36.362 237.295  1.00  0.00     0.043 C 
ATOM     39  C19 UNK     1      -1.995  35.491 238.544  1.00  0.00     0.015 C 
ATOM     40  C20 UNK     1      -3.433  35.896 236.573  1.00  0.00     0.015 C 
ENDBRANCH   1  38
BRANCH  14  41
ATOM     41  O5  UNK     1       2.375  37.255 236.265  1.00  0.00    -0.347 OA
ATOM     42  H40 UNK     1       2.534  36.582 235.613  1.00  0.00     0.215 HD
ENDBRANCH  14  41
BRANCH   6  43
ATOM     43  C23 UNK     1       3.046  34.241 236.470  1.00  0.00     0.039 C 
BRANCH  43  44
ATOM     44  C24 UNK     1       3.240  32.775 236.121  1.00  0.00    -0.020 C 
ATOM     45  C25 UNK     1       2.340  32.461 234.940  1.00  0.00     0.009 C 
ATOM     46  C26 UNK     1       2.892  31.873 237.298  1.00  0.00     0.009 C 
ENDBRANCH  43  44
ENDBRANCH   6  43
TORSDOF 6
ENDMDL
MODEL 3
REMARK VINA RESULT:      -8.3      1.931      4.551
REMARK  6 active torsions:
REMARK  status: ('A' for Active; 'I' for Inactive)
REMARK    1  A    between atoms: C1_2  and  C2_3 
REMARK       I    between atoms: C1_2  and  N3_21 
REMARK    2  A    between atoms: N3_21  and  C17_22 
REMARK    3  A    between atoms: C17_22  and  C18_24 
REMARK    4  A    between atoms: C22_30  and  C23_31 
REMARK    5  A    between atoms: C23_31  and  C24_32 
REMARK    6  A    between atoms: C32_42  and  O5_43 
ROOT
ATOM      1  C17 UNK     1      -0.095  36.069 233.306  1.00  0.00     0.227 A 
ATOM      2  O2  UNK     1      -0.447  35.001 234.205  1.00  0.00    -0.295 OA
ATOM      3  C21 UNK     1       0.916  36.839 234.139  1.00  0.00     0.281 A 
ATOM      4  O3  UNK     1       1.483  37.847 233.728  1.00  0.00    -0.268 OA
ATOM      5  N4  UNK     1       1.073  36.255 235.328  1.00  0.00    -0.277 N 
ATOM      6  C22 UNK     1       2.174  36.487 236.275  1.00  0.00     0.185 C 
ATOM      7  C27 UNK     1       2.652  35.224 236.994  1.00  0.00     0.243 C 
ATOM      8  O4  UNK     1       3.573  35.289 237.805  1.00  0.00    -0.271 OA
ATOM      9  N5  UNK     1       2.037  34.049 236.762  1.00  0.00    -0.338 N 
ATOM     10  C28 UNK     1       2.212  32.811 237.520  1.00  0.00     0.127 C 
ATOM     11  C29 UNK     1       1.326  31.759 236.851  1.00  0.00     0.022 C 
ATOM     12  C30 UNK     1       0.378  32.539 235.945  1.00  0.00     0.034 C 
ATOM     13  C31 UNK     1       1.125  33.839 235.634  1.00  0.00     0.173 C 
ATOM     14  C32 UNK     1       0.238  35.072 235.471  1.00  0.00     0.276 A 
ENDROOT
BRANCH   1  15
ATOM     15  N3  UNK     1      -1.318  36.775 232.930  1.00  0.00    -0.320 N 
ATOM     16  C1  UNK     1      -1.920  37.791 233.564  1.00  0.00     0.229 C 
ATOM     17  O1  UNK     1      -1.986  37.900 234.789  1.00  0.00    -0.273 OA
ATOM     18  H15 UNK     1      -1.763  36.459 232.092  1.00  0.00     0.166 HD
BRANCH  16  19
ATOM     19  C2  UNK     1      -2.587  38.775 232.639  1.00  0.00     0.118 C 
ATOM     20  C3  UNK     1      -1.452  39.333 231.769  1.00  0.00     0.135 C 
ATOM     21  N1  UNK     1      -2.047  40.094 230.681  1.00  0.00    -0.407 N 
ATOM     22  C4  UNK     1      -1.302  41.272 230.248  1.00  0.00     0.144 C 
ATOM     23  C15 UNK     1      -2.732  39.181 229.747  1.00  0.00     0.116 C 
ATOM     24  C6  UNK     1      -3.726  38.250 230.474  1.00  0.00    -0.027 C 
ATOM     25  C14 UNK     1      -3.294  40.029 228.573  1.00  0.00     0.072 C 
ATOM     26  C5  UNK     1      -3.640  38.074 231.802  1.00  0.00    -0.001 C 
ATOM     27  C7  UNK     1      -4.756  37.487 229.685  1.00  0.00    -0.015 A 
ATOM     28  C8  UNK     1      -5.472  36.337 230.024  1.00  0.00     0.013 A 
ATOM     29  C12 UNK     1      -4.954  38.041 228.354  1.00  0.00     0.011 A 
ATOM     30  C9  UNK     1      -6.375  35.791 229.079  1.00  0.00     0.003 A 
ATOM     31  C10 UNK     1      -6.592  36.322 227.784  1.00  0.00     0.030 A 
ATOM     32  C11 UNK     1      -5.894  37.468 227.363  1.00  0.00     0.044 A 
ATOM     33  N2  UNK     1      -5.835  38.246 226.245  1.00  0.00    -0.349 N 
ATOM     34  C16 UNK     1      -4.934  39.246 226.465  1.00  0.00     0.087 A 
ATOM     35  H14 UNK     1      -6.362  38.107 225.406  1.00  0.00     0.166 HD
ATOM     36  C13 UNK     1      -4.302  39.213 227.801  1.00  0.00    -0.008 A 
ATOM     37 Br1  UNK     1      -4.463  40.666 225.137  1.00  0.00    -0.031 Br
ENDBRANCH  16  19
ENDBRANCH   1  15
BRANCH   1  38
ATOM     38  C18 UNK     1       0.573  35.548 232.019  1.00  0.00     0.043 C 
ATOM     39  C19 UNK     1       0.573  36.568 230.872  1.00  0.00     0.015 C 
ATOM     40  C20 UNK     1      -0.084  34.275 231.527  1.00  0.00     0.015 C 
ENDBRANCH   1  38
BRANCH  14  41
ATOM     41  O5  UNK     1      -0.615  35.249 236.620  1.00  0.00    -0.347 OA
ATOM     42  H40 UNK     1      -1.049  34.429 236.821  1.00  0.00     0.215 HD
ENDBRANCH  14  41
BRANCH   6  43
ATOM     43  C23 UNK     1       1.530  37.360 237.345  1.00  0.00     0.039 C 
BRANCH  43  44
ATOM     44  C24 UNK     1       1.939  38.822 237.311  1.00  0.00    -0.020 C 
ATOM     45  C25 UNK     1       3.182  38.972 238.167  1.00  0.00     0.009 C 
ATOM     46  C26 UNK     1       0.828  39.722 237.838  1.00  0.00     0.009 C 
ENDBRANCH  43  44
ENDBRANCH   6  43
TORSDOF 6
ENDMDL
MODEL 4
REMARK VINA RESULT:      -8.1      2.063      4.329
REMARK  6 active torsions:
REMARK  status: ('A' for Active; 'I' for Inactive)
REMARK    1  A    between atoms: C1_2  and  C2_3 
REMARK       I    between atoms: C1_2  and  N3_21 
REMARK    2  A    between atoms: N3_21  and  C17_22 
REMARK    3  A    between atoms: C17_22  and  C18_24 
REMARK    4  A    between atoms: C22_30  and  C23_31 
REMARK    5  A    between atoms: C23_31  and  C24_32 
REMARK    6  A    between atoms: C32_42  and  O5_43 
ROOT
ATOM      1  C17 UNK     1       0.662  33.937 236.062  1.00  0.00     0.227 A 
ATOM      2  O2  UNK     1       0.587  33.394 237.394  1.00  0.00    -0.295 OA
ATOM      3  C21 UNK     1       1.269  35.304 236.333  1.00  0.00     0.281 A 
ATOM      4  O3  UNK     1       1.513  36.109 235.439  1.00  0.00    -0.268 OA
ATOM      5  N4  UNK     1       1.481  35.463 237.640  1.00  0.00    -0.277 N 
ATOM      6  C22 UNK     1       2.338  36.482 238.266  1.00  0.00     0.185 C 
ATOM      7  C27 UNK     1       3.125  35.974 239.475  1.00  0.00     0.243 C 
ATOM      8  O4  UNK     1       3.882  36.731 240.080  1.00  0.00    -0.271 OA
ATOM      9  N5  UNK     1       2.959  34.706 239.897  1.00  0.00    -0.338 N 
ATOM     10  C28 UNK     1       3.450  34.134 241.150  1.00  0.00     0.127 C 
ATOM     11  C29 UNK     1       3.037  32.662 241.152  1.00  0.00     0.022 C 
ATOM     12  C30 UNK     1       1.987  32.531 240.053  1.00  0.00     0.034 C 
ATOM     13  C31 UNK     1       2.292  33.681 239.089  1.00  0.00     0.173 C 
ATOM     14  C32 UNK     1       1.072  34.297 238.407  1.00  0.00     0.276 A 
ENDROOT
BRANCH   1  15
ATOM     15  N3  UNK     1      -0.677  33.911 235.480  1.00  0.00    -0.320 N 
ATOM     16  C1  UNK     1      -1.793  34.500 235.933  1.00  0.00     0.229 C 
ATOM     17  O1  UNK     1      -2.088  34.601 237.125  1.00  0.00    -0.273 OA
ATOM     18  H15 UNK     1      -0.775  33.386 234.634  1.00  0.00     0.166 HD
BRANCH  16  19
ATOM     19  C2  UNK     1      -2.715  34.978 234.842  1.00  0.00     0.118 C 
ATOM     20  C3  UNK     1      -3.296  36.299 235.366  1.00  0.00     0.135 C 
ATOM     21  N1  UNK     1      -3.994  36.954 234.269  1.00  0.00    -0.407 N 
ATOM     22  C4  UNK     1      -5.189  37.706 234.637  1.00  0.00     0.144 C 
ATOM     23  C15 UNK     1      -3.020  37.421 233.264  1.00  0.00     0.116 C 
ATOM     24  C6  UNK     1      -2.069  36.292 232.814  1.00  0.00    -0.027 C 
ATOM     25  C14 UNK     1      -3.803  38.167 232.149  1.00  0.00     0.072 C 
ATOM     26  C5  UNK     1      -1.940  35.179 233.554  1.00  0.00    -0.001 C 
ATOM     27  C7  UNK     1      -1.234  36.464 231.573  1.00  0.00    -0.015 A 
ATOM     28  C8  UNK     1      -0.064  35.808 231.182  1.00  0.00     0.013 A 
ATOM     29  C12 UNK     1      -1.735  37.525 230.712  1.00  0.00     0.011 A 
ATOM     30  C9  UNK     1       0.552  36.179 229.963  1.00  0.00     0.003 A 
ATOM     31  C10 UNK     1       0.074  37.199 229.105  1.00  0.00     0.030 A 
ATOM     32  C11 UNK     1      -1.088  37.917 229.439  1.00  0.00     0.044 A 
ATOM     33  N2  UNK     1      -1.831  38.922 228.894  1.00  0.00    -0.349 N 
ATOM     34  C16 UNK     1      -2.878  39.182 229.729  1.00  0.00     0.087 A 
ATOM     35  H14 UNK     1      -1.641  39.389 228.030  1.00  0.00     0.166 HD
ATOM     36  C13 UNK     1      -2.917  38.335 230.939  1.00  0.00    -0.008 A 
ATOM     37 Br1  UNK     1      -4.274  40.577 229.403  1.00  0.00    -0.031 Br
ENDBRANCH  16  19
ENDBRANCH   1  15
BRANCH   1  38
ATOM     38  C18 UNK     1       1.598  33.118 235.153  1.00  0.00     0.043 C 
ATOM     39  C19 UNK     1       0.939  32.673 233.839  1.00  0.00     0.015 C 
ATOM     40  C20 UNK     1       2.128  31.890 235.862  1.00  0.00     0.015 C 
ENDBRANCH   1  38
BRANCH  14  41
ATOM     41  O5  UNK     1       0.092  34.709 239.380  1.00  0.00    -0.347 OA
ATOM     42  H40 UNK     1       0.529  34.953 240.187  1.00  0.00     0.215 HD
ENDBRANCH  14  41
BRANCH   6  43
ATOM     43  C23 UNK     1       1.332  37.487 238.813  1.00  0.00     0.039 C 
BRANCH  43  44
ATOM     44  C24 UNK     1       1.631  38.939 238.480  1.00  0.00    -0.020 C 
ATOM     45  C25 UNK     1       0.310  39.685 238.452  1.00  0.00     0.009 C 
ATOM     46  C26 UNK     1       2.332  39.066 237.133  1.00  0.00     0.009 C 
ENDBRANCH  43  44
ENDBRANCH   6  43
TORSDOF 6
ENDMDL
MODEL 5
REMARK VINA RESULT:      -8.1      2.337      4.389
REMARK  6 active torsions:
REMARK  status: ('A' for Active; 'I' for Inactive)
REMARK    1  A    between atoms: C1_2  and  C2_3 
REMARK       I    between atoms: C1_2  and  N3_21 
REMARK    2  A    between atoms: N3_21  and  C17_22 
REMARK    3  A    between atoms: C17_22  and  C18_24 
REMARK    4  A    between atoms: C22_30  and  C23_31 
REMARK    5  A    between atoms: C23_31  and  C24_32 
REMARK    6  A    between atoms: C32_42  and  O5_43 
ROOT
ATOM      1  C17 UNK     1      -0.714  35.732 233.297  1.00  0.00     0.227 A 
ATOM      2  O2  UNK     1      -1.525  35.050 234.272  1.00  0.00    -0.295 OA
ATOM      3  C21 UNK     1       0.132  36.627 234.187  1.00  0.00     0.281 A 
ATOM      4  O3  UNK     1       0.985  37.389 233.741  1.00  0.00    -0.268 OA
ATOM      5  N4  UNK     1      -0.195  36.445 235.468  1.00  0.00    -0.277 N 
ATOM      6  C22 UNK     1       0.595  36.861 236.636  1.00  0.00     0.185 C 
ATOM      7  C27 UNK     1       0.573  35.857 237.790  1.00  0.00     0.243 C 
ATOM      8  O4  UNK     1       1.202  36.089 238.821  1.00  0.00    -0.271 OA
ATOM      9  N5  UNK     1      -0.165  34.735 237.687  1.00  0.00    -0.338 N 
ATOM     10  C28 UNK     1      -0.475  33.796 238.764  1.00  0.00     0.127 C 
ATOM     11  C29 UNK     1      -1.310  32.676 238.142  1.00  0.00     0.022 C 
ATOM     12  C30 UNK     1      -1.767  33.211 236.789  1.00  0.00     0.034 C 
ATOM     13  C31 UNK     1      -0.719  34.263 236.415  1.00  0.00     0.173 C 
ATOM     14  C32 UNK     1      -1.252  35.458 235.627  1.00  0.00     0.276 A 
ENDROOT
BRANCH   1  15
ATOM     15  N3  UNK     1      -1.602  36.394 232.344  1.00  0.00    -0.320 N 
ATOM     16  C1  UNK     1      -1.670  37.697 232.038  1.00  0.00     0.229 C 
ATOM     17  O1  UNK     1      -1.525  38.609 232.854  1.00  0.00    -0.273 OA
ATOM     18  H15 UNK     1      -2.241  35.799 231.858  1.00  0.00     0.166 HD
BRANCH  16  19
ATOM     19  C2  UNK     1      -2.015  37.967 230.597  1.00  0.00     0.118 C 
ATOM     20  C3  UNK     1      -3.541  38.147 230.583  1.00  0.00     0.135 C 
ATOM     21  N1  UNK     1      -3.923  38.665 229.278  1.00  0.00    -0.407 N 
ATOM     22  C4  UNK     1      -5.207  38.200 228.762  1.00  0.00     0.144 C 
ATOM     23  C15 UNK     1      -3.446  40.054 229.131  1.00  0.00     0.116 C 
ATOM     24  C6  UNK     1      -1.939  40.181 229.436  1.00  0.00    -0.027 C 
ATOM     25  C14 UNK     1      -3.933  40.584 227.754  1.00  0.00     0.072 C 
ATOM     26  C5  UNK     1      -1.300  39.214 230.113  1.00  0.00    -0.001 C 
ATOM     27  C7  UNK     1      -1.193  41.424 229.027  1.00  0.00    -0.015 A 
ATOM     28  C8  UNK     1       0.012  41.943 229.507  1.00  0.00     0.013 A 
ATOM     29  C12 UNK     1      -1.907  42.191 228.018  1.00  0.00     0.011 A 
ATOM     30  C9  UNK     1       0.493  43.161 228.968  1.00  0.00     0.003 A 
ATOM     31  C10 UNK     1      -0.180  43.916 227.977  1.00  0.00     0.030 A 
ATOM     32  C11 UNK     1      -1.408  43.467 227.458  1.00  0.00     0.044 A 
ATOM     33  N2  UNK     1      -2.316  43.893 226.534  1.00  0.00    -0.349 N 
ATOM     34  C16 UNK     1      -3.333  42.986 226.484  1.00  0.00     0.087 A 
ATOM     35  H14 UNK     1      -2.248  44.728 225.987  1.00  0.00     0.166 HD
ATOM     36  C13 UNK     1      -3.173  41.840 227.403  1.00  0.00    -0.008 A 
ATOM     37 Br1  UNK     1      -4.933  43.136 225.293  1.00  0.00    -0.031 Br
ENDBRANCH  16  19
ENDBRANCH   1  15
BRANCH   1  38
ATOM     38  C18 UNK     1       0.192  34.762 232.515  1.00  0.00     0.043 C 
ATOM     39  C19 UNK     1       0.162  34.985 230.996  1.00  0.00     0.015 C 
ATOM     40  C20 UNK     1      -0.168  33.318 232.794  1.00  0.00     0.015 C 
ENDBRANCH   1  38
BRANCH  14  41
ATOM     41  O5  UNK     1      -2.357  36.077 236.315  1.00  0.00    -0.347 OA
ATOM     42  H40 UNK     1      -3.138  35.548 236.201  1.00  0.00     0.215 HD
ENDBRANCH  14  41
BRANCH   6  43
ATOM     43  C23 UNK     1      -0.155  38.090 237.137  1.00  0.00     0.039 C 
BRANCH  43  44
ATOM     44  C24 UNK     1       0.716  39.305 237.407  1.00  0.00    -0.020 C 
ATOM     45  C25 UNK     1       2.075  39.044 236.786  1.00  0.00     0.009 C 
ATOM     46  C26 UNK     1       0.864  39.560 238.902  1.00  0.00     0.009 C 
ENDBRANCH  43  44
ENDBRANCH   6  43
TORSDOF 6
ENDMDL
MODEL 6
REMARK VINA RESULT:      -8.1      1.996      2.656
REMARK  6 active torsions:
REMARK  status: ('A' for Active; 'I' for Inactive)
REMARK    1  A    between atoms: C1_2  and  C2_3 
REMARK       I    between atoms: C1_2  and  N3_21 
REMARK    2  A    between atoms: N3_21  and  C17_22 
REMARK    3  A    between atoms: C17_22  and  C18_24 
REMARK    4  A    between atoms: C22_30  and  C23_31 
REMARK    5  A    between atoms: C23_31  and  C24_32 
REMARK    6  A    between atoms: C32_42  and  O5_43 
ROOT
ATOM      1  C17 UNK     1      -0.993  37.586 233.662  1.00  0.00     0.227 A 
ATOM      2  O2  UNK     1      -0.029  38.361 234.399  1.00  0.00    -0.295 OA
ATOM      3  C21 UNK     1      -0.762  36.199 234.238  1.00  0.00     0.281 A 
ATOM      4  O3  UNK     1      -1.404  35.217 233.878  1.00  0.00    -0.268 OA
ATOM      5  N4  UNK     1       0.205  36.237 235.156  1.00  0.00    -0.277 N 
ATOM      6  C22 UNK     1       0.494  35.201 236.160  1.00  0.00     0.185 C 
ATOM      7  C27 UNK     1       0.899  35.756 237.526  1.00  0.00     0.243 C 
ATOM      8  O4  UNK     1       1.159  34.988 238.451  1.00  0.00    -0.271 OA
ATOM      9  N5  UNK     1       1.004  37.087 237.704  1.00  0.00    -0.338 N 
ATOM     10  C28 UNK     1       1.590  37.768 238.858  1.00  0.00     0.127 C 
ATOM     11  C29 UNK     1       1.443  39.268 238.602  1.00  0.00     0.022 C 
ATOM     12  C30 UNK     1       1.108  39.399 237.120  1.00  0.00     0.034 C 
ATOM     13  C31 UNK     1       0.463  38.060 236.750  1.00  0.00     0.173 C 
ATOM     14  C32 UNK     1       0.743  37.577 235.328  1.00  0.00     0.276 A 
ENDROOT
BRANCH   1  15
ATOM     15  N3  UNK     1      -0.732  37.763 232.236  1.00  0.00    -0.320 N 
ATOM     16  C1  UNK     1       0.215  37.184 231.486  1.00  0.00     0.229 C 
ATOM     17  O1  UNK     1       1.359  36.945 231.878  1.00  0.00    -0.273 OA
ATOM     18  H15 UNK     1      -1.338  38.398 231.757  1.00  0.00     0.166 HD
BRANCH  16  19
ATOM     19  C2  UNK     1      -0.215  36.904 230.070  1.00  0.00     0.118 C 
ATOM     20  C3  UNK     1      -0.805  35.487 230.108  1.00  0.00     0.135 C 
ATOM     21  N1  UNK     1      -1.477  35.242 228.841  1.00  0.00    -0.407 N 
ATOM     22  C4  UNK     1      -1.408  33.873 228.340  1.00  0.00     0.144 C 
ATOM     23  C15 UNK     1      -2.688  36.079 228.746  1.00  0.00     0.116 C 
ATOM     24  C6  UNK     1      -2.383  37.568 229.013  1.00  0.00    -0.027 C 
ATOM     25  C14 UNK     1      -3.404  35.736 227.410  1.00  0.00     0.072 C 
ATOM     26  C5  UNK     1      -1.244  37.926 229.625  1.00  0.00    -0.001 C 
ATOM     27  C7  UNK     1      -3.395  38.620 228.643  1.00  0.00    -0.015 A 
ATOM     28  C8  UNK     1      -3.539  39.927 229.111  1.00  0.00     0.013 A 
ATOM     29  C12 UNK     1      -4.381  38.128 227.692  1.00  0.00     0.011 A 
ATOM     30  C9  UNK     1      -4.607  40.716 228.617  1.00  0.00     0.003 A 
ATOM     31  C10 UNK     1      -5.568  40.261 227.683  1.00  0.00     0.030 A 
ATOM     32  C11 UNK     1      -5.500  38.950 227.179  1.00  0.00     0.044 A 
ATOM     33  N2  UNK     1      -6.206  38.180 226.303  1.00  0.00    -0.349 N 
ATOM     34  C16 UNK     1      -5.615  36.953 226.238  1.00  0.00     0.087 A 
ATOM     35  H14 UNK     1      -7.019  38.466 225.794  1.00  0.00     0.166 HD
ATOM     36  C13 UNK     1      -4.422  36.805 227.097  1.00  0.00    -0.008 A 
ATOM     37 Br1  UNK     1      -6.260  35.438 225.102  1.00  0.00    -0.031 Br
ENDBRANCH  16  19
ENDBRANCH   1  15
BRANCH   1  38
ATOM     38  C18 UNK     1      -2.439  38.038 233.945  1.00  0.00     0.043 C 
ATOM     39  C19 UNK     1      -3.244  37.030 234.777  1.00  0.00     0.015 C 
ATOM     40  C20 UNK     1      -3.197  38.314 232.664  1.00  0.00     0.015 C 
ENDBRANCH   1  38
BRANCH  14  41
ATOM     41  O5  UNK     1       2.161  37.538 235.067  1.00  0.00    -0.347 OA
ATOM     42  H40 UNK     1       2.309  37.420 234.136  1.00  0.00     0.215 HD
ENDBRANCH  14  41
BRANCH   6  43
ATOM     43  C23 UNK     1       1.737  34.519 235.600  1.00  0.00     0.039 C 
BRANCH  43  44
ATOM     44  C24 UNK     1       1.613  33.016 235.415  1.00  0.00    -0.020 C 
ATOM     45  C25 UNK     1       2.995  32.416 235.594  1.00  0.00     0.009 C 
ATOM     46  C26 UNK     1       1.068  32.670 234.035  1.00  0.00     0.009 C 
ENDBRANCH  43  44
ENDBRANCH   6  43
TORSDOF 6
ENDMDL
MODEL 7
REMARK VINA RESULT:      -8.0      2.831      4.680
REMARK  6 active torsions:
REMARK  status: ('A' for Active; 'I' for Inactive)
REMARK    1  A    between atoms: C1_2  and  C2_3 
REMARK       I    between atoms: C1_2  and  N3_21 
REMARK    2  A    between atoms: N3_21  and  C17_22 
REMARK    3  A    between atoms: C17_22  and  C18_24 
REMARK    4  A    between atoms: C22_30  and  C23_31 
REMARK    5  A    between atoms: C23_31  and  C24_32 
REMARK    6  A    between atoms: C32_42  and  O5_43 
ROOT
ATOM      1  C17 UNK     1      -0.764  36.296 233.576  1.00  0.00     0.227 A 
ATOM      2  O2  UNK     1      -0.387  34.933 233.310  1.00  0.00    -0.295 OA
ATOM      3  C21 UNK     1      -1.308  36.184 234.990  1.00  0.00     0.281 A 
ATOM      4  O3  UNK     1      -1.739  37.149 235.613  1.00  0.00    -0.268 OA
ATOM      5  N4  UNK     1      -1.233  34.920 235.413  1.00  0.00    -0.277 N 
ATOM      6  C22 UNK     1      -1.343  34.460 236.806  1.00  0.00     0.185 C 
ATOM      7  C27 UNK     1      -0.394  33.314 237.158  1.00  0.00     0.243 C 
ATOM      8  O4  UNK     1      -0.387  32.847 238.295  1.00  0.00    -0.271 OA
ATOM      9  N5  UNK     1       0.410  32.795 236.210  1.00  0.00    -0.338 N 
ATOM     10  C28 UNK     1       1.200  31.569 236.314  1.00  0.00     0.127 C 
ATOM     11  C29 UNK     1       1.963  31.426 234.996  1.00  0.00     0.022 C 
ATOM     12  C30 UNK     1       1.289  32.392 234.027  1.00  0.00     0.034 C 
ATOM     13  C31 UNK     1       0.652  33.457 234.924  1.00  0.00     0.173 C 
ATOM     14  C32 UNK     1      -0.662  34.040 234.406  1.00  0.00     0.276 A 
ENDROOT
BRANCH   1  15
ATOM     15  N3  UNK     1      -1.698  36.725 232.539  1.00  0.00    -0.320 N 
ATOM     16  C1  UNK     1      -2.067  37.972 232.215  1.00  0.00     0.229 C 
ATOM     17  O1  UNK     1      -2.234  38.879 233.033  1.00  0.00    -0.273 OA
ATOM     18  H15 UNK     1      -2.118  35.994 232.001  1.00  0.00     0.166 HD
BRANCH  16  19
ATOM     19  C2  UNK     1      -2.335  38.167 230.746  1.00  0.00     0.118 C 
ATOM     20  C3  UNK     1      -3.851  38.393 230.647  1.00  0.00     0.135 C 
ATOM     21  N1  UNK     1      -4.154  38.845 229.297  1.00  0.00    -0.407 N 
ATOM     22  C4  UNK     1      -5.427  38.391 228.747  1.00  0.00     0.144 C 
ATOM     23  C15 UNK     1      -3.624  40.207 229.094  1.00  0.00     0.116 C 
ATOM     24  C6  UNK     1      -2.129  40.305 229.463  1.00  0.00    -0.027 C 
ATOM     25  C14 UNK     1      -4.027  40.669 227.666  1.00  0.00     0.072 C 
ATOM     26  C5  UNK     1      -1.556  39.360 230.226  1.00  0.00    -0.001 C 
ATOM     27  C7  UNK     1      -1.322  41.496 229.020  1.00  0.00    -0.015 A 
ATOM     28  C8  UNK     1      -0.124  42.005 229.527  1.00  0.00     0.013 A 
ATOM     29  C12 UNK     1      -1.962  42.224 227.935  1.00  0.00     0.011 A 
ATOM     30  C9  UNK     1       0.423  43.173 228.942  1.00  0.00     0.003 A 
ATOM     31  C10 UNK     1      -0.177  43.888 227.878  1.00  0.00     0.030 A 
ATOM     32  C11 UNK     1      -1.393  43.448 227.327  1.00  0.00     0.044 A 
ATOM     33  N2  UNK     1      -2.242  43.847 226.336  1.00  0.00    -0.349 N 
ATOM     34  C16 UNK     1      -3.286  42.971 226.289  1.00  0.00     0.087 A 
ATOM     35  H14 UNK     1      -2.120  44.645 225.746  1.00  0.00     0.166 HD
ATOM     36  C13 UNK     1      -3.209  41.877 227.280  1.00  0.00    -0.008 A 
ATOM     37 Br1  UNK     1      -4.823  43.100 225.015  1.00  0.00    -0.031 Br
ENDBRANCH  16  19
ENDBRANCH   1  15
BRANCH   1  38
ATOM     38  C18 UNK     1       0.448  37.248 233.554  1.00  0.00     0.043 C 
ATOM     39  C19 UNK     1       1.323  37.097 232.302  1.00  0.00     0.015 C 
ATOM     40  C20 UNK     1       1.324  37.062 234.775  1.00  0.00     0.015 C 
ENDBRANCH   1  38
BRANCH  14  41
ATOM     41  O5  UNK     1      -1.612  32.994 234.121  1.00  0.00    -0.347 OA
ATOM     42  H40 UNK     1      -1.392  32.219 234.625  1.00  0.00     0.215 HD
ENDBRANCH  14  41
BRANCH   6  43
ATOM     43  C23 UNK     1      -2.748  33.872 236.863  1.00  0.00     0.039 C 
BRANCH  43  44
ATOM     44  C24 UNK     1      -3.638  34.444 237.953  1.00  0.00    -0.020 C 
ATOM     45  C25 UNK     1      -2.937  35.662 238.527  1.00  0.00     0.009 C 
ATOM     46  C26 UNK     1      -3.896  33.422 239.052  1.00  0.00     0.009 C 
ENDBRANCH  43  44
ENDBRANCH   6  43
TORSDOF 6
ENDMDL
MODEL 8
REMARK VINA RESULT:      -8.0      4.114     10.166
REMARK  6 active torsions:
REMARK  status: ('A' for Active; 'I' for Inactive)
REMARK    1  A    between atoms: C1_2  and  C2_3 
REMARK       I    between atoms: C1_2  and  N3_21 
REMARK    2  A    between atoms: N3_21  and  C17_22 
REMARK    3  A    between atoms: C17_22  and  C18_24 
REMARK    4  A    between atoms: C22_30  and  C23_31 
REMARK    5  A    between atoms: C23_31  and  C24_32 
REMARK    6  A    between atoms: C32_42  and  O5_43 
ROOT
ATOM      1  C17 UNK     1      -2.101  39.552 230.449  1.00  0.00     0.227 A 
ATOM      2  O2  UNK     1      -1.297  40.732 230.630  1.00  0.00    -0.295 OA
ATOM      3  C21 UNK     1      -2.857  39.899 229.178  1.00  0.00     0.281 A 
ATOM      4  O3  UNK     1      -3.667  39.136 228.659  1.00  0.00    -0.268 OA
ATOM      5  N4  UNK     1      -2.503  41.112 228.747  1.00  0.00    -0.277 N 
ATOM      6  C22 UNK     1      -2.747  41.666 227.408  1.00  0.00     0.185 C 
ATOM      7  C27 UNK     1      -1.594  42.512 226.865  1.00  0.00     0.243 C 
ATOM      8  O4  UNK     1      -1.677  43.025 225.751  1.00  0.00    -0.271 OA
ATOM      9  N5  UNK     1      -0.503  42.722 227.626  1.00  0.00    -0.338 N 
ATOM     10  C28 UNK     1       0.574  43.675 227.360  1.00  0.00     0.127 C 
ATOM     11  C29 UNK     1       1.590  43.515 228.491  1.00  0.00     0.022 C 
ATOM     12  C30 UNK     1       0.870  42.726 229.579  1.00  0.00     0.034 C 
ATOM     13  C31 UNK     1      -0.215  41.943 228.834  1.00  0.00     0.173 C 
ATOM     14  C32 UNK     1      -1.512  41.731 229.614  1.00  0.00     0.276 A 
ENDROOT
BRANCH   1  15
ATOM     15  N3  UNK     1      -2.895  39.347 231.657  1.00  0.00    -0.320 N 
ATOM     16  C1  UNK     1      -3.555  38.246 232.043  1.00  0.00     0.229 C 
ATOM     17  O1  UNK     1      -4.152  37.491 231.272  1.00  0.00    -0.273 OA
ATOM     18  H15 UNK     1      -2.955  40.129 232.278  1.00  0.00     0.166 HD
BRANCH  16  19
ATOM     19  C2  UNK     1      -3.570  38.035 233.534  1.00  0.00     0.118 C 
ATOM     20  C3  UNK     1      -4.109  36.610 233.726  1.00  0.00     0.135 C 
ATOM     21  N1  UNK     1      -3.912  36.235 235.119  1.00  0.00    -0.407 N 
ATOM     22  C4  UNK     1      -4.946  35.385 235.700  1.00  0.00     0.144 C 
ATOM     23  C15 UNK     1      -2.473  36.062 235.392  1.00  0.00     0.116 C 
ATOM     24  C6  UNK     1      -1.650  37.291 234.954  1.00  0.00    -0.027 C 
ATOM     25  C14 UNK     1      -2.317  35.601 236.868  1.00  0.00     0.072 C 
ATOM     26  C5  UNK     1      -2.170  38.184 234.097  1.00  0.00    -0.001 C 
ATOM     27  C7  UNK     1      -0.234  37.460 235.439  1.00  0.00    -0.015 A 
ATOM     28  C8  UNK     1       0.809  38.222 234.909  1.00  0.00     0.013 A 
ATOM     29  C12 UNK     1       0.052  36.637 236.605  1.00  0.00     0.011 A 
ATOM     30  C9  UNK     1       2.073  38.186 235.547  1.00  0.00     0.003 A 
ATOM     31  C10 UNK     1       2.368  37.404 236.689  1.00  0.00     0.030 A 
ATOM     32  C11 UNK     1       1.374  36.595 237.269  1.00  0.00     0.044 A 
ATOM     33  N2  UNK     1       1.275  35.741 238.328  1.00  0.00    -0.349 N 
ATOM     34  C16 UNK     1       0.002  35.253 238.366  1.00  0.00     0.087 A 
ATOM     35  H14 UNK     1       2.009  35.512 238.967  1.00  0.00     0.166 HD
ATOM     36  C13 UNK     1      -0.880  35.767 237.296  1.00  0.00    -0.008 A 
ATOM     37 Br1  UNK     1      -0.677  33.950 239.724  1.00  0.00    -0.031 Br
ENDBRANCH  16  19
ENDBRANCH   1  15
BRANCH   1  38
ATOM     38  C18 UNK     1      -1.241  38.294 230.220  1.00  0.00     0.043 C 
ATOM     39  C19 UNK     1      -0.352  37.933 231.419  1.00  0.00     0.015 C 
ATOM     40  C20 UNK     1      -0.359  38.438 228.998  1.00  0.00     0.015 C 
ENDBRANCH   1  38
BRANCH  14  41
ATOM     41  O5  UNK     1      -2.039  42.986 230.089  1.00  0.00    -0.347 OA
ATOM     42  H40 UNK     1      -2.941  43.078 229.806  1.00  0.00     0.215 HD
ENDBRANCH  14  41
BRANCH   6  43
ATOM     43  C23 UNK     1      -3.901  42.634 227.642  1.00  0.00     0.039 C 
BRANCH  43  44
ATOM     44  C24 UNK     1      -5.082  42.462 226.702  1.00  0.00    -0.020 C 
ATOM     45  C25 UNK     1      -4.856  41.189 225.907  1.00  0.00     0.009 C 
ATOM     46  C26 UNK     1      -5.217  43.651 225.758  1.00  0.00     0.009 C 
ENDBRANCH  43  44
ENDBRANCH   6  43
TORSDOF 6
ENDMDL
MODEL 9
REMARK VINA RESULT:      -7.9      4.073     10.431
REMARK  6 active torsions:
REMARK  status: ('A' for Active; 'I' for Inactive)
REMARK    1  A    between atoms: C1_2  and  C2_3 
REMARK       I    between atoms: C1_2  and  N3_21 
REMARK    2  A    between atoms: N3_21  and  C17_22 
REMARK    3  A    between atoms: C17_22  and  C18_24 
REMARK    4  A    between atoms: C22_30  and  C23_31 
REMARK    5  A    between atoms: C23_31  and  C24_32 
REMARK    6  A    between atoms: C32_42  and  O5_43 
ROOT
ATOM      1  C17 UNK     1      -3.318  37.067 231.439  1.00  0.00     0.227 A 
ATOM      2  O2  UNK     1      -3.777  36.578 230.165  1.00  0.00    -0.295 OA
ATOM      3  C21 UNK     1      -3.259  38.563 231.180  1.00  0.00     0.281 A 
ATOM      4  O3  UNK     1      -2.914  39.371 232.037  1.00  0.00    -0.268 OA
ATOM      5  N4  UNK     1      -3.633  38.829 229.927  1.00  0.00    -0.277 N 
ATOM      6  C22 UNK     1      -4.024  40.143 229.394  1.00  0.00     0.185 C 
ATOM      7  C27 UNK     1      -5.184  40.090 228.398  1.00  0.00     0.243 C 
ATOM      8  O4  UNK     1      -5.606  41.126 227.889  1.00  0.00    -0.271 OA
ATOM      9  N5  UNK     1      -5.716  38.902 228.055  1.00  0.00    -0.338 N 
ATOM     10  C28 UNK     1      -6.660  38.653 226.965  1.00  0.00     0.127 C 
ATOM     11  C29 UNK     1      -6.989  37.160 227.002  1.00  0.00     0.022 C 
ATOM     12  C30 UNK     1      -5.923  36.529 227.892  1.00  0.00     0.034 C 
ATOM     13  C31 UNK     1      -5.455  37.668 228.802  1.00  0.00     0.173 C 
ATOM     14  C32 UNK     1      -3.979  37.622 229.192  1.00  0.00     0.276 A 
ENDROOT
BRANCH   1  15
ATOM     15  N3  UNK     1      -2.058  36.401 231.760  1.00  0.00    -0.320 N 
ATOM     16  C1  UNK     1      -0.869  36.537 231.158  1.00  0.00     0.229 C 
ATOM     17  O1  UNK     1      -0.720  36.686 229.944  1.00  0.00    -0.273 OA
ATOM     18  H15 UNK     1      -2.087  35.761 232.529  1.00  0.00     0.166 HD
BRANCH  16  19
ATOM     19  C2  UNK     1       0.305  36.418 232.095  1.00  0.00     0.118 C 
ATOM     20  C3  UNK     1      -0.078  37.266 233.318  1.00  0.00     0.135 C 
ATOM     21  N1  UNK     1       0.885  36.996 234.375  1.00  0.00    -0.407 N 
ATOM     22  C4  UNK     1       1.218  38.128 235.233  1.00  0.00     0.144 C 
ATOM     23  C15 UNK     1       0.702  35.622 234.881  1.00  0.00     0.116 C 
ATOM     24  C6  UNK     1       0.718  34.581 233.741  1.00  0.00    -0.027 C 
ATOM     25  C14 UNK     1       1.705  35.404 236.047  1.00  0.00     0.072 C 
ATOM     26  C5  UNK     1       0.530  34.966 232.469  1.00  0.00    -0.001 C 
ATOM     27  C7  UNK     1       0.882  33.119 234.063  1.00  0.00    -0.015 A 
ATOM     28  C8  UNK     1       0.549  31.993 233.306  1.00  0.00     0.013 A 
ATOM     29  C12 UNK     1       1.421  32.903 235.397  1.00  0.00     0.011 A 
ATOM     30  C9  UNK     1       0.782  30.708 233.854  1.00  0.00     0.003 A 
ATOM     31  C10 UNK     1       1.317  30.477 235.145  1.00  0.00     0.030 A 
ATOM     32  C11 UNK     1       1.660  31.561 235.973  1.00  0.00     0.044 A 
ATOM     33  N2  UNK     1       2.182  31.737 237.221  1.00  0.00    -0.349 N 
ATOM     34  C16 UNK     1       2.280  33.076 237.459  1.00  0.00     0.087 A 
ATOM     35  H14 UNK     1       2.448  31.008 237.853  1.00  0.00     0.166 HD
ATOM     36  C13 UNK     1       1.815  33.929 236.345  1.00  0.00    -0.008 A 
ATOM     37 Br1  UNK     1       2.978  33.882 239.151  1.00  0.00    -0.031 Br
ENDBRANCH  16  19
ENDBRANCH   1  15
BRANCH   1  38
ATOM     38  C18 UNK     1      -4.321  36.769 232.570  1.00  0.00     0.043 C 
ATOM     39  C19 UNK     1      -3.670  36.171 233.825  1.00  0.00     0.015 C 
ATOM     40  C20 UNK     1      -5.418  35.833 232.108  1.00  0.00     0.015 C 
ENDBRANCH   1  38
BRANCH  14  41
ATOM     41  O5  UNK     1      -3.140  37.542 228.023  1.00  0.00    -0.347 OA
ATOM     42  H40 UNK     1      -3.652  37.232 227.285  1.00  0.00     0.215 HD
ENDBRANCH  14  41
BRANCH   6  43
ATOM     43  C23 UNK     1      -2.800  40.565 228.590  1.00  0.00     0.039 C 
BRANCH  43  44
ATOM     44  C24 UNK     1      -2.286  41.962 228.893  1.00  0.00    -0.020 C 
ATOM     45  C25 UNK     1      -1.965  42.631 227.569  1.00  0.00     0.009 C 
ATOM     46  C26 UNK     1      -1.042  41.917 229.771  1.00  0.00     0.009 C 
ENDBRANCH  43  44
ENDBRANCH   6  43
TORSDOF 6
ENDMDL
