MODEL 1
REMARK VINA RESULT:      -7.4      0.000      0.000
REMARK  1 active torsions:
REMARK  status: ('A' for Active; 'I' for Inactive)
REMARK    1  A    between atoms: O1_1  and  C16_17 
ROOT
ATOM      1  C1  UNK     1       1.519  36.038 236.091  1.00  0.00    -0.002 C 
ATOM      2  C2  UNK     1       1.522  36.649 237.541  1.00  0.00    -0.036 C 
ATOM      3  C3  UNK     1       0.921  37.037 235.041  1.00  0.00    -0.004 C 
ATOM      4  C4  UNK     1       0.998  36.371 233.668  1.00  0.00     0.005 C 
ATOM      5  C5  UNK     1       2.317  37.993 237.476  1.00  0.00    -0.004 C 
ATOM      6  C6  UNK     1       0.158  35.075 233.604  1.00  0.00    -0.022 C 
ATOM      7  C7  UNK     1       0.894  34.617 235.987  1.00  0.00     0.007 C 
ATOM      8  C8  UNK     1       1.662  38.380 235.068  1.00  0.00     0.006 C 
ATOM      9  C9  UNK     1       1.716  38.983 236.471  1.00  0.00     0.006 C 
ATOM     10  C10 UNK     1       0.821  34.066 234.546  1.00  0.00     0.014 C 
ATOM     11  C11 UNK     1       2.264  35.709 238.531  1.00  0.00     0.012 C 
ATOM     12  C12 UNK     1       2.509  38.643 238.858  1.00  0.00     0.037 C 
ATOM     13  C13 UNK     1       0.625  37.133 232.399  1.00  0.00     0.033 C 
ATOM     14  C14 UNK     1       0.073  36.854 238.054  1.00  0.00     0.016 C 
ATOM     15  C15 UNK     1       2.498  36.332 239.913  1.00  0.00     0.032 C 
ATOM     16  C16 UNK     1       3.194  37.691 239.839  1.00  0.00     0.118 C 
ATOM     17  C17 UNK     1       0.248  34.821 232.121  1.00  0.00    -0.021 C 
ATOM     18  C18 UNK     1      -1.340  35.236 233.949  1.00  0.00     0.020 C 
ATOM     19  C19 UNK     1       0.456  35.970 231.457  1.00  0.00    -0.029 C 
ENDROOT
BRANCH  16  20
ATOM     20  O1  UNK     1       4.547  37.508 239.424  1.00  0.00    -0.396 OA
ATOM     21  H30 UNK     1       4.722  38.142 238.706  1.00  0.00     0.210 HD
ENDBRANCH  16  20
TORSDOF 1
ENDMDL
MODEL 2
REMARK VINA RESULT:      -7.1      9.007     11.256
REMARK  1 active torsions:
REMARK  status: ('A' for Active; 'I' for Inactive)
REMARK    1  A    between atoms: O1_1  and  C16_17 
ROOT
ATOM      1  C1  UNK     1      -2.190  43.024 227.491  1.00  0.00    -0.002 C 
ATOM      2  C2  UNK     1      -0.677  43.215 227.881  1.00  0.00    -0.036 C 
ATOM      3  C3  UNK     1      -2.752  41.653 228.001  1.00  0.00    -0.004 C 
ATOM      4  C4  UNK     1      -4.227  41.579 227.610  1.00  0.00     0.005 C 
ATOM      5  C5  UNK     1      -0.577  43.069 229.434  1.00  0.00    -0.004 C 
ATOM      6  C6  UNK     1      -4.424  41.619 226.077  1.00  0.00    -0.022 C 
ATOM      7  C7  UNK     1      -2.510  43.282 225.991  1.00  0.00     0.007 C 
ATOM      8  C8  UNK     1      -2.552  41.498 229.514  1.00  0.00     0.006 C 
ATOM      9  C9  UNK     1      -1.099  41.715 229.931  1.00  0.00     0.006 C 
ATOM     10  C10 UNK     1      -3.981  43.008 225.607  1.00  0.00     0.014 C 
ATOM     11  C11 UNK     1      -0.192  44.644 227.509  1.00  0.00     0.012 C 
ATOM     12  C12 UNK     1       0.835  43.359 229.973  1.00  0.00     0.037 C 
ATOM     13  C13 UNK     1      -5.113  40.428 228.081  1.00  0.00     0.033 C 
ATOM     14  C14 UNK     1       0.216  42.187 227.141  1.00  0.00     0.016 C 
ATOM     15  C15 UNK     1       1.203  44.979 228.052  1.00  0.00     0.032 C 
ATOM     16  C16 UNK     1       1.324  44.747 229.558  1.00  0.00     0.118 C 
ATOM     17  C17 UNK     1      -5.895  41.293 226.030  1.00  0.00    -0.021 C 
ATOM     18  C18 UNK     1      -3.686  40.517 225.284  1.00  0.00     0.020 C 
ATOM     19  C19 UNK     1      -6.258  40.591 227.117  1.00  0.00    -0.029 C 
ENDROOT
BRANCH  16  20
ATOM     20  O1  UNK     1       0.552  45.725 230.253  1.00  0.00    -0.396 OA
ATOM     21  H30 UNK     1       0.039  46.220 229.590  1.00  0.00     0.210 HD
ENDBRANCH  16  20
TORSDOF 1
ENDMDL
MODEL 3
REMARK VINA RESULT:      -7.0      3.404      6.231
REMARK  1 active torsions:
REMARK  status: ('A' for Active; 'I' for Inactive)
REMARK    1  A    between atoms: O1_1  and  C16_17 
ROOT
ATOM      1  C1  UNK     1       3.306  34.791 237.630  1.00  0.00    -0.002 C 
ATOM      2  C2  UNK     1       2.781  33.321 237.424  1.00  0.00    -0.036 C 
ATOM      3  C3  UNK     1       2.861  35.377 239.013  1.00  0.00    -0.004 C 
ATOM      4  C4  UNK     1       3.448  36.783 239.134  1.00  0.00     0.005 C 
ATOM      5  C5  UNK     1       3.300  32.471 238.629  1.00  0.00    -0.004 C 
ATOM      6  C6  UNK     1       2.915  37.731 238.035  1.00  0.00    -0.022 C 
ATOM      7  C7  UNK     1       3.009  35.756 236.447  1.00  0.00     0.007 C 
ATOM      8  C8  UNK     1       3.303  34.471 240.169  1.00  0.00     0.006 C 
ATOM      9  C9  UNK     1       2.841  33.027 239.982  1.00  0.00     0.006 C 
ATOM     10  C10 UNK     1       3.455  37.213 236.699  1.00  0.00     0.014 C 
ATOM     11  C11 UNK     1       3.368  32.706 236.124  1.00  0.00     0.012 C 
ATOM     12  C12 UNK     1       2.965  30.975 238.494  1.00  0.00     0.037 C 
ATOM     13  C13 UNK     1       3.321  37.584 240.427  1.00  0.00     0.033 C 
ATOM     14  C14 UNK     1       1.234  33.299 237.321  1.00  0.00     0.016 C 
ATOM     15  C15 UNK     1       3.078  31.208 235.967  1.00  0.00     0.032 C 
ATOM     16  C16 UNK     1       3.504  30.392 237.187  1.00  0.00     0.118 C 
ATOM     17  C17 UNK     1       3.471  39.027 238.567  1.00  0.00    -0.021 C 
ATOM     18  C18 UNK     1       1.378  37.883 237.978  1.00  0.00     0.020 C 
ATOM     19  C19 UNK     1       3.646  38.956 239.897  1.00  0.00    -0.029 C 
ENDROOT
BRANCH  16  20
ATOM     20  O1  UNK     1       4.928  30.355 237.260  1.00  0.00    -0.396 OA
ATOM     21  H30 UNK     1       5.243  29.749 236.566  1.00  0.00     0.210 HD
ENDBRANCH  16  20
TORSDOF 1
ENDMDL
MODEL 4
REMARK VINA RESULT:      -6.9      2.574      5.978
REMARK  1 active torsions:
REMARK  status: ('A' for Active; 'I' for Inactive)
REMARK    1  A    between atoms: O1_1  and  C16_17 
ROOT
ATOM      1  C1  UNK     1       2.211  35.666 236.432  1.00  0.00    -0.002 C 
ATOM      2  C2  UNK     1       1.439  34.346 236.057  1.00  0.00    -0.036 C 
ATOM      3  C3  UNK     1       2.448  35.781 237.977  1.00  0.00    -0.004 C 
ATOM      4  C4  UNK     1       3.233  37.067 238.233  1.00  0.00     0.005 C 
ATOM      5  C5  UNK     1       2.267  33.148 236.626  1.00  0.00    -0.004 C 
ATOM      6  C6  UNK     1       2.449  38.324 237.790  1.00  0.00    -0.022 C 
ATOM      7  C7  UNK     1       1.610  36.964 235.820  1.00  0.00     0.007 C 
ATOM      8  C8  UNK     1       3.178  34.547 238.521  1.00  0.00     0.006 C 
ATOM      9  C9  UNK     1       2.474  33.244 238.142  1.00  0.00     0.006 C 
ATOM     10  C10 UNK     1       2.327  38.257 236.264  1.00  0.00     0.014 C 
ATOM     11  C11 UNK     1       1.361  34.176 234.515  1.00  0.00     0.012 C 
ATOM     12  C12 UNK     1       1.692  31.779 236.223  1.00  0.00     0.037 C 
ATOM     13  C13 UNK     1       3.752  37.410 239.627  1.00  0.00     0.033 C 
ATOM     14  C14 UNK     1      -0.004  34.375 236.621  1.00  0.00     0.016 C 
ATOM     15  C15 UNK     1       0.817  32.811 234.074  1.00  0.00     0.032 C 
ATOM     16  C16 UNK     1       1.571  31.641 234.706  1.00  0.00     0.118 C 
ATOM     17  C17 UNK     1       3.354  39.373 238.381  1.00  0.00    -0.021 C 
ATOM     18  C18 UNK     1       1.058  38.502 238.438  1.00  0.00     0.020 C 
ATOM     19  C19 UNK     1       4.034  38.876 239.428  1.00  0.00    -0.029 C 
ENDROOT
BRANCH  16  20
ATOM     20  O1  UNK     1       2.884  31.569 234.151  1.00  0.00    -0.396 OA
ATOM     21  H30 UNK     1       2.791  31.386 233.199  1.00  0.00     0.210 HD
ENDBRANCH  16  20
TORSDOF 1
ENDMDL
MODEL 5
REMARK VINA RESULT:      -6.7      1.746      3.206
REMARK  1 active torsions:
REMARK  status: ('A' for Active; 'I' for Inactive)
REMARK    1  A    between atoms: O1_1  and  C16_17 
ROOT
ATOM      1  C1  UNK     1       0.660  35.891 236.093  1.00  0.00    -0.002 C 
ATOM      2  C2  UNK     1       1.349  37.283 236.349  1.00  0.00    -0.036 C 
ATOM      3  C3  UNK     1       1.689  34.818 235.598  1.00  0.00    -0.004 C 
ATOM      4  C4  UNK     1       0.937  33.500 235.416  1.00  0.00     0.005 C 
ATOM      5  C5  UNK     1       2.506  37.047 237.373  1.00  0.00    -0.004 C 
ATOM      6  C6  UNK     1      -0.172  33.607 234.345  1.00  0.00    -0.022 C 
ATOM      7  C7  UNK     1      -0.615  35.952 235.204  1.00  0.00     0.007 C 
ATOM      8  C8  UNK     1       2.861  34.677 236.577  1.00  0.00     0.006 C 
ATOM      9  C9  UNK     1       3.529  36.018 236.877  1.00  0.00     0.006 C 
ATOM     10  C10 UNK     1      -1.230  34.570 234.893  1.00  0.00     0.014 C 
ATOM     11  C11 UNK     1       0.346  38.281 236.991  1.00  0.00     0.012 C 
ATOM     12  C12 UNK     1       3.190  38.353 237.814  1.00  0.00     0.037 C 
ATOM     13  C13 UNK     1       1.676  32.208 235.075  1.00  0.00     0.033 C 
ATOM     14  C14 UNK     1       1.864  37.894 235.020  1.00  0.00     0.016 C 
ATOM     15  C15 UNK     1       0.997  39.585 237.468  1.00  0.00     0.032 C 
ATOM     16  C16 UNK     1       2.186  39.347 238.397  1.00  0.00     0.118 C 
ATOM     17  C17 UNK     1      -0.531  32.147 234.244  1.00  0.00    -0.021 C 
ATOM     18  C18 UNK     1       0.299  34.059 232.944  1.00  0.00     0.020 C 
ATOM     19  C19 UNK     1       0.512  31.379 234.601  1.00  0.00    -0.029 C 
ENDROOT
BRANCH  16  20
ATOM     20  O1  UNK     1       1.718  38.839 239.646  1.00  0.00    -0.396 OA
ATOM     21  H30 UNK     1       1.039  39.453 239.977  1.00  0.00     0.210 HD
ENDBRANCH  16  20
TORSDOF 1
ENDMDL
MODEL 6
REMARK VINA RESULT:      -6.7      2.839      6.626
REMARK  1 active torsions:
REMARK  status: ('A' for Active; 'I' for Inactive)
REMARK    1  A    between atoms: O1_1  and  C16_17 
ROOT
ATOM      1  C1  UNK     1       1.025  36.338 233.572  1.00  0.00    -0.002 C 
ATOM      2  C2  UNK     1       0.109  36.259 232.294  1.00  0.00    -0.036 C 
ATOM      3  C3  UNK     1       0.663  35.224 234.613  1.00  0.00    -0.004 C 
ATOM      4  C4  UNK     1       1.626  35.358 235.793  1.00  0.00     0.005 C 
ATOM      5  C5  UNK     1       0.259  34.819 231.705  1.00  0.00    -0.004 C 
ATOM      6  C6  UNK     1       1.484  36.723 236.505  1.00  0.00    -0.022 C 
ATOM      7  C7  UNK     1       1.120  37.750 234.215  1.00  0.00     0.007 C 
ATOM      8  C8  UNK     1       0.727  33.828 233.979  1.00  0.00     0.006 C 
ATOM      9  C9  UNK     1      -0.123  33.729 232.713  1.00  0.00     0.006 C 
ATOM     10  C10 UNK     1       1.952  37.794 235.515  1.00  0.00     0.014 C 
ATOM     11  C11 UNK     1       0.592  37.264 231.211  1.00  0.00     0.012 C 
ATOM     12  C12 UNK     1      -0.489  34.637 230.372  1.00  0.00     0.037 C 
ATOM     13  C13 UNK     1       1.638  34.333 236.924  1.00  0.00     0.033 C 
ATOM     14  C14 UNK     1      -1.362  36.592 232.650  1.00  0.00     0.016 C 
ATOM     15  C15 UNK     1      -0.113  37.096 229.859  1.00  0.00     0.032 C 
ATOM     16  C16 UNK     1      -0.044  35.664 229.330  1.00  0.00     0.118 C 
ATOM     17  C17 UNK     1       2.352  36.442 237.705  1.00  0.00    -0.021 C 
ATOM     18  C18 UNK     1       0.069  37.052 237.033  1.00  0.00     0.020 C 
ATOM     19  C19 UNK     1       2.392  35.123 237.961  1.00  0.00    -0.029 C 
ENDROOT
BRANCH  16  20
ATOM     20  O1  UNK     1       1.297  35.365 228.943  1.00  0.00    -0.396 OA
ATOM     21  H30 UNK     1       1.772  36.210 228.853  1.00  0.00     0.210 HD
ENDBRANCH  16  20
TORSDOF 1
ENDMDL
MODEL 7
REMARK VINA RESULT:      -6.6      2.187      3.799
REMARK  1 active torsions:
REMARK  status: ('A' for Active; 'I' for Inactive)
REMARK    1  A    between atoms: O1_1  and  C16_17 
ROOT
ATOM      1  C1  UNK     1       0.146  37.156 233.196  1.00  0.00    -0.002 C 
ATOM      2  C2  UNK     1       0.680  37.137 234.677  1.00  0.00    -0.036 C 
ATOM      3  C3  UNK     1      -1.202  36.368 233.056  1.00  0.00    -0.004 C 
ATOM      4  C4  UNK     1      -1.656  36.477 231.600  1.00  0.00     0.005 C 
ATOM      5  C5  UNK     1      -0.451  37.721 235.585  1.00  0.00    -0.004 C 
ATOM      6  C6  UNK     1      -0.641  35.836 230.626  1.00  0.00    -0.022 C 
ATOM      7  C7  UNK     1       1.194  36.745 232.124  1.00  0.00     0.007 C 
ATOM      8  C8  UNK     1      -2.262  36.902 234.028  1.00  0.00     0.006 C 
ATOM      9  C9  UNK     1      -1.761  36.933 235.471  1.00  0.00     0.006 C 
ATOM     10  C10 UNK     1       0.632  36.686 230.686  1.00  0.00     0.014 C 
ATOM     11  C11 UNK     1       1.924  38.057 234.822  1.00  0.00     0.012 C 
ATOM     12  C12 UNK     1      -0.017  37.880 237.053  1.00  0.00     0.037 C 
ATOM     13  C13 UNK     1      -3.012  35.936 231.154  1.00  0.00     0.033 C 
ATOM     14  C14 UNK     1       1.081  35.701 235.098  1.00  0.00     0.016 C 
ATOM     15  C15 UNK     1       2.371  38.261 236.275  1.00  0.00     0.032 C 
ATOM     16  C16 UNK     1       1.238  38.744 237.180  1.00  0.00     0.118 C 
ATOM     17  C17 UNK     1      -1.470  35.892 229.369  1.00  0.00    -0.021 C 
ATOM     18  C18 UNK     1      -0.314  34.349 230.892  1.00  0.00     0.020 C 
ATOM     19  C19 UNK     1      -2.780  35.897 229.666  1.00  0.00    -0.029 C 
ENDROOT
BRANCH  16  20
ATOM     20  O1  UNK     1       0.899  40.088 236.840  1.00  0.00    -0.396 OA
ATOM     21  H30 UNK     1       0.088  40.318 237.326  1.00  0.00     0.210 HD
ENDBRANCH  16  20
TORSDOF 1
ENDMDL
MODEL 8
REMARK VINA RESULT:      -6.5      1.927      3.000
REMARK  1 active torsions:
REMARK  status: ('A' for Active; 'I' for Inactive)
REMARK    1  A    between atoms: O1_1  and  C16_17 
ROOT
ATOM      1  C1  UNK     1       2.376  34.873 236.586  1.00  0.00    -0.002 C 
ATOM      2  C2  UNK     1       2.164  35.950 237.714  1.00  0.00    -0.036 C 
ATOM      3  C3  UNK     1       1.026  34.486 235.892  1.00  0.00    -0.004 C 
ATOM      4  C4  UNK     1       1.340  33.471 234.793  1.00  0.00     0.005 C 
ATOM      5  C5  UNK     1       1.459  37.179 237.054  1.00  0.00    -0.004 C 
ATOM      6  C6  UNK     1       1.956  32.172 235.363  1.00  0.00    -0.022 C 
ATOM      7  C7  UNK     1       3.200  33.629 237.025  1.00  0.00     0.007 C 
ATOM      8  C8  UNK     1       0.311  35.726 235.338  1.00  0.00     0.006 C 
ATOM      9  C9  UNK     1       0.122  36.808 236.400  1.00  0.00     0.006 C 
ATOM     10  C10 UNK     1       3.328  32.543 235.934  1.00  0.00     0.014 C 
ATOM     11  C11 UNK     1       3.530  36.434 238.274  1.00  0.00     0.012 C 
ATOM     12  C12 UNK     1       1.301  38.367 238.019  1.00  0.00     0.037 C 
ATOM     13  C13 UNK     1       0.259  32.992 233.828  1.00  0.00     0.033 C 
ATOM     14  C14 UNK     1       1.335  35.364 238.886  1.00  0.00     0.016 C 
ATOM     15  C15 UNK     1       3.416  37.636 239.220  1.00  0.00     0.032 C 
ATOM     16  C16 UNK     1       2.645  38.803 238.603  1.00  0.00     0.118 C 
ATOM     17  C17 UNK     1       1.915  31.336 234.110  1.00  0.00    -0.021 C 
ATOM     18  C18 UNK     1       1.104  31.444 236.427  1.00  0.00     0.020 C 
ATOM     19  C19 UNK     1       0.942  31.763 233.288  1.00  0.00    -0.029 C 
ENDROOT
BRANCH  16  20
ATOM     20  O1  UNK     1       3.424  39.388 237.561  1.00  0.00    -0.396 OA
ATOM     21  H30 UNK     1       3.355  38.809 236.782  1.00  0.00     0.210 HD
ENDBRANCH  16  20
TORSDOF 1
ENDMDL
MODEL 9
REMARK VINA RESULT:      -6.5      3.128      6.219
REMARK  1 active torsions:
REMARK  status: ('A' for Active; 'I' for Inactive)
REMARK    1  A    between atoms: O1_1  and  C16_17 
ROOT
ATOM      1  C1  UNK     1       1.252  34.308 234.961  1.00  0.00    -0.002 C 
ATOM      2  C2  UNK     1       0.656  32.860 234.801  1.00  0.00    -0.036 C 
ATOM      3  C3  UNK     1       2.043  34.465 236.305  1.00  0.00    -0.004 C 
ATOM      4  C4  UNK     1       2.611  35.883 236.349  1.00  0.00     0.005 C 
ATOM      5  C5  UNK     1       1.847  31.854 234.915  1.00  0.00    -0.004 C 
ATOM      6  C6  UNK     1       1.498  36.955 236.339  1.00  0.00    -0.022 C 
ATOM      7  C7  UNK     1       0.231  35.458 234.730  1.00  0.00     0.007 C 
ATOM      8  C8  UNK     1       3.143  33.403 236.430  1.00  0.00     0.006 C 
ATOM      9  C9  UNK     1       2.603  31.986 236.242  1.00  0.00     0.006 C 
ATOM     10  C10 UNK     1       0.809  36.869 234.974  1.00  0.00     0.014 C 
ATOM     11  C11 UNK     1       0.019  32.681 233.395  1.00  0.00     0.012 C 
ATOM     12  C12 UNK     1       1.427  30.397 234.650  1.00  0.00     0.037 C 
ATOM     13  C13 UNK     1       3.556  36.321 237.465  1.00  0.00     0.033 C 
ATOM     14  C14 UNK     1      -0.435  32.593 235.870  1.00  0.00     0.016 C 
ATOM     15  C15 UNK     1      -0.389  31.236 233.085  1.00  0.00     0.032 C 
ATOM     16  C16 UNK     1       0.755  30.242 233.286  1.00  0.00     0.118 C 
ATOM     17  C17 UNK     1       2.348  38.165 236.626  1.00  0.00    -0.021 C 
ATOM     18  C18 UNK     1       0.460  36.845 237.478  1.00  0.00     0.020 C 
ATOM     19  C19 UNK     1       3.460  37.814 237.293  1.00  0.00    -0.029 C 
ENDROOT
BRANCH  16  20
ATOM     20  O1  UNK     1       1.739  30.439 232.271  1.00  0.00    -0.396 OA
ATOM     21  H30 UNK     1       2.613  30.353 232.689  1.00  0.00     0.210 HD
ENDBRANCH  16  20
TORSDOF 1
ENDMDL
