MODEL 1
REMARK VINA RESULT:      -5.9      0.000      0.000
REMARK  12 active torsions:
REMARK  status: ('A' for Active; 'I' for Inactive)
REMARK    1  A    between atoms: N1_3  and  C1_5 
REMARK    2  A    between atoms: N1_3  and  C2_6 
REMARK       I    between atoms: N1_3  and  C8_12 
REMARK    3  A    between atoms: C1_5  and  C3_7 
REMARK    4  A    between atoms: C2_6  and  C4_8 
REMARK    5  A    between atoms: C3_7  and  C5_9 
REMARK    6  A    between atoms: C4_8  and  C6_10 
REMARK    7  A    between atoms: C5_9  and  C10_14 
REMARK    8  A    between atoms: C6_10  and  C11_15 
REMARK    9  A    between atoms: C7_11  and  C8_12 
REMARK   10  A    between atoms: C7_11  and  C9_13 
REMARK   11  A    between atoms: C10_14  and  C15_19 
REMARK   12  A    between atoms: C11_15  and  C16_20 
ROOT
ATOM      1  F1  UNK     1       3.089  39.432 239.005  1.00  0.00    -0.206 F 
ATOM      2  N2  UNK     1       1.354  37.412 233.187  1.00  0.00    -0.354 N 
ATOM      3  C9  UNK     1       0.743  35.570 234.263  1.00  0.00    -0.009 A 
ATOM      4  C12 UNK     1       0.459  35.392 232.881  1.00  0.00    -0.000 A 
ATOM      5  C13 UNK     1       1.293  36.820 234.421  1.00  0.00     0.050 A 
ATOM      6  C14 UNK     1       0.852  36.563 232.228  1.00  0.00     0.043 A 
ATOM      7  C17 UNK     1       1.758  37.497 235.609  1.00  0.00    -0.009 A 
ATOM      8  C18 UNK     1      -0.096  34.344 232.118  1.00  0.00     0.014 A 
ATOM      9  C19 UNK     1       0.718  36.739 230.846  1.00  0.00     0.030 A 
ATOM     10  C22 UNK     1      -0.236  34.507 230.735  1.00  0.00     0.001 A 
ATOM     11  C23 UNK     1       0.165  35.686 230.111  1.00  0.00     0.002 A 
ATOM     12  C24 UNK     1       2.786  36.942 236.371  1.00  0.00     0.017 A 
ATOM     13  C25 UNK     1       1.179  38.706 235.996  1.00  0.00     0.017 A 
ATOM     14  C26 UNK     1       3.236  37.595 237.517  1.00  0.00     0.043 A 
ATOM     15  C27 UNK     1       1.629  39.359 237.143  1.00  0.00     0.043 A 
ATOM     16  C28 UNK     1       2.658  38.804 237.903  1.00  0.00     0.116 A 
ATOM     17  H19 UNK     1       1.717  38.337 233.002  1.00  0.00     0.166 HD
ENDROOT
BRANCH   3  18
ATOM     18  C7  UNK     1       0.486  34.568 235.350  1.00  0.00     0.144 C 
BRANCH  18  19
ATOM     19  C8  UNK     1      -0.999  34.380 235.633  1.00  0.00     0.224 C 
ATOM     20  O1  UNK     1      -1.699  33.679 234.897  1.00  0.00    -0.273 OA
ATOM     21  N1  UNK     1      -1.485  35.056 236.776  1.00  0.00    -0.352 N 
BRANCH  21  22
ATOM     22  C1  UNK     1      -0.613  35.879 237.623  1.00  0.00     0.125 C 
BRANCH  22  23
ATOM     23  C3  UNK     1      -0.259  35.194 238.940  1.00  0.00     0.020 C 
BRANCH  23  24
ATOM     24  C5  UNK     1       1.254  35.077 239.152  1.00  0.00     0.002 C 
BRANCH  24  25
ATOM     25  C10 UNK     1       1.764  33.694 238.741  1.00  0.00    -0.000 C 
BRANCH  25  26
ATOM     26  C15 UNK     1       3.224  33.697 238.283  1.00  0.00    -0.005 C 
ATOM     27  C20 UNK     1       3.429  33.095 236.901  1.00  0.00     0.005 C 
ENDBRANCH  25  26
ENDBRANCH  24  25
ENDBRANCH  23  24
ENDBRANCH  22  23
ENDBRANCH  21  22
BRANCH  21  28
ATOM     28  C2  UNK     1      -2.863  34.979 237.178  1.00  0.00     0.125 C 
BRANCH  28  29
ATOM     29  C4  UNK     1      -3.666  36.207 236.758  1.00  0.00     0.020 C 
BRANCH  29  30
ATOM     30  C6  UNK     1      -4.263  36.068 235.354  1.00  0.00     0.002 C 
BRANCH  30  31
ATOM     31  C11 UNK     1      -3.911  37.275 234.482  1.00  0.00    -0.000 C 
BRANCH  31  32
ATOM     32  C16 UNK     1      -2.411  37.409 234.210  1.00  0.00    -0.005 C 
ATOM     33  C21 UNK     1      -2.036  38.693 233.485  1.00  0.00     0.005 C 
ENDBRANCH  31  32
ENDBRANCH  30  31
ENDBRANCH  29  30
ENDBRANCH  28  29
ENDBRANCH  21  28
ENDBRANCH  18  19
ENDBRANCH   3  18
TORSDOF 12
ENDMDL
MODEL 2
REMARK VINA RESULT:      -5.8      1.656      2.201
REMARK  12 active torsions:
REMARK  status: ('A' for Active; 'I' for Inactive)
REMARK    1  A    between atoms: N1_3  and  C1_5 
REMARK    2  A    between atoms: N1_3  and  C2_6 
REMARK       I    between atoms: N1_3  and  C8_12 
REMARK    3  A    between atoms: C1_5  and  C3_7 
REMARK    4  A    between atoms: C2_6  and  C4_8 
REMARK    5  A    between atoms: C3_7  and  C5_9 
REMARK    6  A    between atoms: C4_8  and  C6_10 
REMARK    7  A    between atoms: C5_9  and  C10_14 
REMARK    8  A    between atoms: C6_10  and  C11_15 
REMARK    9  A    between atoms: C7_11  and  C8_12 
REMARK   10  A    between atoms: C7_11  and  C9_13 
REMARK   11  A    between atoms: C10_14  and  C15_19 
REMARK   12  A    between atoms: C11_15  and  C16_20 
ROOT
ATOM      1  F1  UNK     1       3.895  39.310 239.925  1.00  0.00    -0.206 F 
ATOM      2  N2  UNK     1       1.658  37.541 234.197  1.00  0.00    -0.354 N 
ATOM      3  C9  UNK     1       1.098  35.670 235.252  1.00  0.00    -0.009 A 
ATOM      4  C12 UNK     1       0.702  35.550 233.891  1.00  0.00    -0.000 A 
ATOM      5  C13 UNK     1       1.684  36.905 235.410  1.00  0.00     0.050 A 
ATOM      6  C14 UNK     1       1.064  36.738 233.251  1.00  0.00     0.043 A 
ATOM      7  C17 UNK     1       2.257  37.528 236.580  1.00  0.00    -0.009 A 
ATOM      8  C18 UNK     1       0.067  34.541 233.139  1.00  0.00     0.014 A 
ATOM      9  C19 UNK     1       0.823  36.968 231.893  1.00  0.00     0.030 A 
ATOM     10  C22 UNK     1      -0.181  34.758 231.778  1.00  0.00     0.001 A 
ATOM     11  C23 UNK     1       0.192  35.954 231.166  1.00  0.00     0.002 A 
ATOM     12  C24 UNK     1       3.332  36.927 237.235  1.00  0.00     0.017 A 
ATOM     13  C25 UNK     1       1.735  38.731 237.056  1.00  0.00     0.017 A 
ATOM     14  C26 UNK     1       3.885  37.529 238.365  1.00  0.00     0.043 A 
ATOM     15  C27 UNK     1       2.289  39.333 238.186  1.00  0.00     0.043 A 
ATOM     16  C28 UNK     1       3.364  38.732 238.840  1.00  0.00     0.116 A 
ATOM     17  H19 UNK     1       2.024  38.467 234.017  1.00  0.00     0.166 HD
ENDROOT
BRANCH   3  18
ATOM     18  C7  UNK     1       0.910  34.632 236.319  1.00  0.00     0.144 C 
BRANCH  18  19
ATOM     19  C8  UNK     1      -0.455  34.724 236.989  1.00  0.00     0.224 C 
ATOM     20  O1  UNK     1      -0.757  35.703 237.677  1.00  0.00    -0.273 OA
ATOM     21  N1  UNK     1      -1.314  33.625 236.758  1.00  0.00    -0.352 N 
BRANCH  21  22
ATOM     22  C1  UNK     1      -0.911  32.482 235.931  1.00  0.00     0.125 C 
BRANCH  22  23
ATOM     23  C3  UNK     1      -0.383  31.315 236.760  1.00  0.00     0.020 C 
BRANCH  23  24
ATOM     24  C5  UNK     1       0.885  30.696 236.161  1.00  0.00     0.002 C 
BRANCH  24  25
ATOM     25  C10 UNK     1       1.172  31.264 234.769  1.00  0.00    -0.000 C 
BRANCH  25  26
ATOM     26  C15 UNK     1       2.575  31.861 234.637  1.00  0.00    -0.005 C 
ATOM     27  C20 UNK     1       3.323  31.955 235.958  1.00  0.00     0.005 C 
ENDBRANCH  25  26
ENDBRANCH  24  25
ENDBRANCH  23  24
ENDBRANCH  22  23
ENDBRANCH  21  22
BRANCH  21  28
ATOM     28  C2  UNK     1      -2.636  33.561 237.319  1.00  0.00     0.125 C 
BRANCH  28  29
ATOM     29  C4  UNK     1      -3.727  33.792 236.278  1.00  0.00     0.020 C 
BRANCH  29  30
ATOM     30  C6  UNK     1      -3.988  35.280 236.021  1.00  0.00     0.002 C 
BRANCH  30  31
ATOM     31  C11 UNK     1      -3.413  35.717 234.672  1.00  0.00    -0.000 C 
BRANCH  31  32
ATOM     32  C16 UNK     1      -2.454  36.905 234.777  1.00  0.00    -0.005 C 
ATOM     33  C21 UNK     1      -2.449  37.795 233.543  1.00  0.00     0.005 C 
ENDBRANCH  31  32
ENDBRANCH  30  31
ENDBRANCH  29  30
ENDBRANCH  28  29
ENDBRANCH  21  28
ENDBRANCH  18  19
ENDBRANCH   3  18
TORSDOF 12
ENDMDL
MODEL 3
REMARK VINA RESULT:      -5.6      1.747      4.008
REMARK  12 active torsions:
REMARK  status: ('A' for Active; 'I' for Inactive)
REMARK    1  A    between atoms: N1_3  and  C1_5 
REMARK    2  A    between atoms: N1_3  and  C2_6 
REMARK       I    between atoms: N1_3  and  C8_12 
REMARK    3  A    between atoms: C1_5  and  C3_7 
REMARK    4  A    between atoms: C2_6  and  C4_8 
REMARK    5  A    between atoms: C3_7  and  C5_9 
REMARK    6  A    between atoms: C4_8  and  C6_10 
REMARK    7  A    between atoms: C5_9  and  C10_14 
REMARK    8  A    between atoms: C6_10  and  C11_15 
REMARK    9  A    between atoms: C7_11  and  C8_12 
REMARK   10  A    between atoms: C7_11  and  C9_13 
REMARK   11  A    between atoms: C10_14  and  C15_19 
REMARK   12  A    between atoms: C11_15  and  C16_20 
ROOT
ATOM      1  F1  UNK     1       3.890  39.425 239.625  1.00  0.00    -0.206 F 
ATOM      2  N2  UNK     1       1.602  37.503 233.968  1.00  0.00    -0.354 N 
ATOM      3  C9  UNK     1       0.999  35.685 235.090  1.00  0.00    -0.009 A 
ATOM      4  C12 UNK     1       0.597  35.525 233.735  1.00  0.00    -0.000 A 
ATOM      5  C13 UNK     1       1.614  36.910 235.203  1.00  0.00     0.050 A 
ATOM      6  C14 UNK     1       0.987  36.680 233.052  1.00  0.00     0.043 A 
ATOM      7  C17 UNK     1       2.204  37.562 236.349  1.00  0.00    -0.009 A 
ATOM      8  C18 UNK     1      -0.063  34.506 233.020  1.00  0.00     0.014 A 
ATOM      9  C19 UNK     1       0.750  36.866 231.686  1.00  0.00     0.030 A 
ATOM     10  C22 UNK     1      -0.308  34.679 231.653  1.00  0.00     0.001 A 
ATOM     11  C23 UNK     1       0.093  35.842 230.998  1.00  0.00     0.002 A 
ATOM     12  C24 UNK     1       3.265  36.960 237.025  1.00  0.00     0.017 A 
ATOM     13  C25 UNK     1       1.712  38.794 236.781  1.00  0.00     0.017 A 
ATOM     14  C26 UNK     1       3.834  37.589 238.131  1.00  0.00     0.043 A 
ATOM     15  C27 UNK     1       2.282  39.423 237.887  1.00  0.00     0.043 A 
ATOM     16  C28 UNK     1       3.343  38.820 238.562  1.00  0.00     0.116 A 
ATOM     17  H19 UNK     1       1.989  38.412 233.753  1.00  0.00     0.166 HD
ENDROOT
BRANCH   3  18
ATOM     18  C7  UNK     1       0.788  34.692 236.195  1.00  0.00     0.144 C 
BRANCH  18  19
ATOM     19  C8  UNK     1      -0.002  35.274 237.361  1.00  0.00     0.224 C 
ATOM     20  O1  UNK     1       0.577  35.766 238.333  1.00  0.00    -0.273 OA
ATOM     21  N1  UNK     1      -1.408  35.202 237.232  1.00  0.00    -0.352 N 
BRANCH  21  22
ATOM     22  C1  UNK     1      -2.053  34.608 236.054  1.00  0.00     0.125 C 
BRANCH  22  23
ATOM     23  C3  UNK     1      -3.170  35.482 235.493  1.00  0.00     0.020 C 
BRANCH  23  24
ATOM     24  C5  UNK     1      -2.636  36.687 234.711  1.00  0.00     0.002 C 
BRANCH  24  25
ATOM     25  C10 UNK     1      -3.059  36.622 233.241  1.00  0.00    -0.000 C 
BRANCH  25  26
ATOM     26  C15 UNK     1      -2.744  37.901 232.463  1.00  0.00    -0.005 C 
ATOM     27  C20 UNK     1      -1.936  38.914 233.260  1.00  0.00     0.005 C 
ENDBRANCH  25  26
ENDBRANCH  24  25
ENDBRANCH  23  24
ENDBRANCH  22  23
ENDBRANCH  21  22
BRANCH  21  28
ATOM     28  C2  UNK     1      -2.293  35.708 238.245  1.00  0.00     0.125 C 
BRANCH  28  29
ATOM     29  C4  UNK     1      -2.751  34.624 239.217  1.00  0.00     0.020 C 
BRANCH  29  30
ATOM     30  C6  UNK     1      -4.186  34.843 239.707  1.00  0.00     0.002 C 
BRANCH  30  31
ATOM     31  C11 UNK     1      -4.936  33.514 239.829  1.00  0.00    -0.000 C 
BRANCH  31  32
ATOM     32  C16 UNK     1      -6.210  33.456 238.983  1.00  0.00    -0.005 C 
ATOM     33  C21 UNK     1      -5.974  33.738 237.507  1.00  0.00     0.005 C 
ENDBRANCH  31  32
ENDBRANCH  30  31
ENDBRANCH  29  30
ENDBRANCH  28  29
ENDBRANCH  21  28
ENDBRANCH  18  19
ENDBRANCH   3  18
TORSDOF 12
ENDMDL
MODEL 4
REMARK VINA RESULT:      -5.6      1.649      2.740
REMARK  12 active torsions:
REMARK  status: ('A' for Active; 'I' for Inactive)
REMARK    1  A    between atoms: N1_3  and  C1_5 
REMARK    2  A    between atoms: N1_3  and  C2_6 
REMARK       I    between atoms: N1_3  and  C8_12 
REMARK    3  A    between atoms: C1_5  and  C3_7 
REMARK    4  A    between atoms: C2_6  and  C4_8 
REMARK    5  A    between atoms: C3_7  and  C5_9 
REMARK    6  A    between atoms: C4_8  and  C6_10 
REMARK    7  A    between atoms: C5_9  and  C10_14 
REMARK    8  A    between atoms: C6_10  and  C11_15 
REMARK    9  A    between atoms: C7_11  and  C8_12 
REMARK   10  A    between atoms: C7_11  and  C9_13 
REMARK   11  A    between atoms: C10_14  and  C15_19 
REMARK   12  A    between atoms: C11_15  and  C16_20 
ROOT
ATOM      1  F1  UNK     1       3.708  39.007 239.371  1.00  0.00    -0.206 F 
ATOM      2  N2  UNK     1      -0.633  38.784 234.677  1.00  0.00    -0.354 N 
ATOM      3  C9  UNK     1      -0.085  36.634 234.588  1.00  0.00    -0.009 A 
ATOM      4  C12 UNK     1      -1.081  36.881 233.602  1.00  0.00    -0.000 A 
ATOM      5  C13 UNK     1       0.170  37.823 235.232  1.00  0.00     0.050 A 
ATOM      6  C14 UNK     1      -1.407  38.237 233.679  1.00  0.00     0.043 A 
ATOM      7  C17 UNK     1       1.087  38.130 236.305  1.00  0.00    -0.009 A 
ATOM      8  C18 UNK     1      -1.738  36.079 232.648  1.00  0.00     0.014 A 
ATOM      9  C19 UNK     1      -2.361  38.833 232.847  1.00  0.00     0.030 A 
ATOM     10  C22 UNK     1      -2.695  36.662 231.809  1.00  0.00     0.001 A 
ATOM     11  C23 UNK     1      -3.001  38.018 231.908  1.00  0.00     0.002 A 
ATOM     12  C24 UNK     1       2.455  37.921 236.134  1.00  0.00     0.017 A 
ATOM     13  C25 UNK     1       0.604  38.634 237.513  1.00  0.00     0.017 A 
ATOM     14  C26 UNK     1       3.341  38.217 237.170  1.00  0.00     0.043 A 
ATOM     15  C27 UNK     1       1.490  38.931 238.548  1.00  0.00     0.043 A 
ATOM     16  C28 UNK     1       2.858  38.723 238.376  1.00  0.00     0.116 A 
ATOM     17  H19 UNK     1      -0.656  39.756 234.954  1.00  0.00     0.166 HD
ENDROOT
BRANCH   3  18
ATOM     18  C7  UNK     1       0.567  35.313 234.869  1.00  0.00     0.144 C 
BRANCH  18  19
ATOM     19  C8  UNK     1      -0.312  34.395 235.710  1.00  0.00     0.224 C 
ATOM     20  O1  UNK     1      -1.314  33.860 235.225  1.00  0.00    -0.273 OA
ATOM     21  N1  UNK     1       0.109  34.217 237.047  1.00  0.00    -0.352 N 
BRANCH  21  22
ATOM     22  C1  UNK     1       1.309  34.873 237.580  1.00  0.00     0.125 C 
BRANCH  22  23
ATOM     23  C3  UNK     1       2.472  33.905 237.771  1.00  0.00     0.020 C 
BRANCH  23  24
ATOM     24  C5  UNK     1       3.366  33.808 236.530  1.00  0.00     0.002 C 
BRANCH  24  25
ATOM     25  C10 UNK     1       3.530  32.354 236.081  1.00  0.00    -0.000 C 
BRANCH  25  26
ATOM     26  C15 UNK     1       2.630  31.979 234.901  1.00  0.00    -0.005 C 
ATOM     27  C20 UNK     1       1.404  31.174 235.305  1.00  0.00     0.005 C 
ENDBRANCH  25  26
ENDBRANCH  24  25
ENDBRANCH  23  24
ENDBRANCH  22  23
ENDBRANCH  21  22
BRANCH  21  28
ATOM     28  C2  UNK     1      -0.612  33.381 237.968  1.00  0.00     0.125 C 
BRANCH  28  29
ATOM     29  C4  UNK     1      -1.421  34.186 238.981  1.00  0.00     0.020 C 
BRANCH  29  30
ATOM     30  C6  UNK     1      -2.822  34.536 238.468  1.00  0.00     0.002 C 
BRANCH  30  31
ATOM     31  C11 UNK     1      -3.004  36.051 238.350  1.00  0.00    -0.000 C 
BRANCH  31  32
ATOM     32  C16 UNK     1      -2.878  36.566 236.914  1.00  0.00    -0.005 C 
ATOM     33  C21 UNK     1      -3.965  36.049 235.984  1.00  0.00     0.005 C 
ENDBRANCH  31  32
ENDBRANCH  30  31
ENDBRANCH  29  30
ENDBRANCH  28  29
ENDBRANCH  21  28
ENDBRANCH  18  19
ENDBRANCH   3  18
TORSDOF 12
ENDMDL
MODEL 5
REMARK VINA RESULT:      -5.6      2.869      6.932
REMARK  12 active torsions:
REMARK  status: ('A' for Active; 'I' for Inactive)
REMARK    1  A    between atoms: N1_3  and  C1_5 
REMARK    2  A    between atoms: N1_3  and  C2_6 
REMARK       I    between atoms: N1_3  and  C8_12 
REMARK    3  A    between atoms: C1_5  and  C3_7 
REMARK    4  A    between atoms: C2_6  and  C4_8 
REMARK    5  A    between atoms: C3_7  and  C5_9 
REMARK    6  A    between atoms: C4_8  and  C6_10 
REMARK    7  A    between atoms: C5_9  and  C10_14 
REMARK    8  A    between atoms: C6_10  and  C11_15 
REMARK    9  A    between atoms: C7_11  and  C8_12 
REMARK   10  A    between atoms: C7_11  and  C9_13 
REMARK   11  A    between atoms: C10_14  and  C15_19 
REMARK   12  A    between atoms: C11_15  and  C16_20 
ROOT
ATOM      1  F1  UNK     1      -1.347  32.135 233.850  1.00  0.00    -0.206 F 
ATOM      2  N2  UNK     1       1.861  35.571 238.190  1.00  0.00    -0.354 N 
ATOM      3  C9  UNK     1       1.985  37.078 236.564  1.00  0.00    -0.009 A 
ATOM      4  C12 UNK     1       2.650  37.601 237.708  1.00  0.00    -0.000 A 
ATOM      5  C13 UNK     1       1.510  35.829 236.891  1.00  0.00     0.050 A 
ATOM      6  C14 UNK     1       2.558  36.636 238.714  1.00  0.00     0.043 A 
ATOM      7  C17 UNK     1       0.770  34.872 236.103  1.00  0.00    -0.009 A 
ATOM      8  C18 UNK     1       3.325  38.807 237.985  1.00  0.00     0.014 A 
ATOM      9  C19 UNK     1       3.109  36.816 239.987  1.00  0.00     0.030 A 
ATOM     10  C22 UNK     1       3.881  39.001 239.255  1.00  0.00     0.001 A 
ATOM     11  C23 UNK     1       3.773  38.020 240.239  1.00  0.00     0.002 A 
ATOM     12  C24 UNK     1       1.319  34.363 234.926  1.00  0.00     0.017 A 
ATOM     13  C25 UNK     1      -0.496  34.456 236.518  1.00  0.00     0.017 A 
ATOM     14  C26 UNK     1       0.604  33.438 234.165  1.00  0.00     0.043 A 
ATOM     15  C27 UNK     1      -1.210  33.531 235.756  1.00  0.00     0.043 A 
ATOM     16  C28 UNK     1      -0.660  33.022 234.580  1.00  0.00     0.116 A 
ATOM     17  H19 UNK     1       1.644  34.723 238.695  1.00  0.00     0.166 HD
ENDROOT
BRANCH   3  18
ATOM     18  C7  UNK     1       1.831  37.769 235.242  1.00  0.00     0.144 C 
BRANCH  18  19
ATOM     19  C8  UNK     1       0.372  37.971 234.853  1.00  0.00     0.224 C 
ATOM     20  O1  UNK     1      -0.440  38.428 235.662  1.00  0.00    -0.273 OA
ATOM     21  N1  UNK     1       0.044  37.600 233.529  1.00  0.00    -0.352 N 
BRANCH  21  22
ATOM     22  C1  UNK     1       1.046  37.060 232.601  1.00  0.00     0.125 C 
BRANCH  22  23
ATOM     23  C3  UNK     1       0.450  36.069 231.606  1.00  0.00     0.020 C 
BRANCH  23  24
ATOM     24  C5  UNK     1       0.821  36.397 230.156  1.00  0.00     0.002 C 
BRANCH  24  25
ATOM     25  C10 UNK     1       0.699  35.161 229.262  1.00  0.00    -0.000 C 
BRANCH  25  26
ATOM     26  C15 UNK     1      -0.103  35.414 227.983  1.00  0.00    -0.005 C 
ATOM     27  C20 UNK     1      -1.372  36.221 228.212  1.00  0.00     0.005 C 
ENDBRANCH  25  26
ENDBRANCH  24  25
ENDBRANCH  23  24
ENDBRANCH  22  23
ENDBRANCH  21  22
BRANCH  21  28
ATOM     28  C2  UNK     1      -1.289  37.729 233.009  1.00  0.00     0.125 C 
BRANCH  28  29
ATOM     29  C4  UNK     1      -1.509  39.052 232.281  1.00  0.00     0.020 C 
BRANCH  29  30
ATOM     30  C6  UNK     1      -1.972  38.856 230.833  1.00  0.00     0.002 C 
BRANCH  30  31
ATOM     31  C11 UNK     1      -1.096  39.650 229.861  1.00  0.00    -0.000 C 
BRANCH  31  32
ATOM     32  C16 UNK     1      -1.275  41.165 229.982  1.00  0.00    -0.005 C 
ATOM     33  C21 UNK     1      -0.215  41.964 229.240  1.00  0.00     0.005 C 
ENDBRANCH  31  32
ENDBRANCH  30  31
ENDBRANCH  29  30
ENDBRANCH  28  29
ENDBRANCH  21  28
ENDBRANCH  18  19
ENDBRANCH   3  18
TORSDOF 12
ENDMDL
MODEL 6
REMARK VINA RESULT:      -5.6      2.653      5.781
REMARK  12 active torsions:
REMARK  status: ('A' for Active; 'I' for Inactive)
REMARK    1  A    between atoms: N1_3  and  C1_5 
REMARK    2  A    between atoms: N1_3  and  C2_6 
REMARK       I    between atoms: N1_3  and  C8_12 
REMARK    3  A    between atoms: C1_5  and  C3_7 
REMARK    4  A    between atoms: C2_6  and  C4_8 
REMARK    5  A    between atoms: C3_7  and  C5_9 
REMARK    6  A    between atoms: C4_8  and  C6_10 
REMARK    7  A    between atoms: C5_9  and  C10_14 
REMARK    8  A    between atoms: C6_10  and  C11_15 
REMARK    9  A    between atoms: C7_11  and  C8_12 
REMARK   10  A    between atoms: C7_11  and  C9_13 
REMARK   11  A    between atoms: C10_14  and  C15_19 
REMARK   12  A    between atoms: C11_15  and  C16_20 
ROOT
ATOM      1  F1  UNK     1       3.622  39.641 238.734  1.00  0.00    -0.206 F 
ATOM      2  N2  UNK     1       1.077  34.580 235.758  1.00  0.00    -0.354 N 
ATOM      3  C9  UNK     1       0.952  35.957 234.022  1.00  0.00    -0.009 A 
ATOM      4  C12 UNK     1       0.427  34.694 233.628  1.00  0.00    -0.000 A 
ATOM      5  C13 UNK     1       1.343  35.856 235.337  1.00  0.00     0.050 A 
ATOM      6  C14 UNK     1       0.518  33.849 234.736  1.00  0.00     0.043 A 
ATOM      7  C17 UNK     1       1.934  36.837 236.217  1.00  0.00    -0.009 A 
ATOM      8  C18 UNK     1      -0.119  34.188 232.431  1.00  0.00     0.014 A 
ATOM      9  C19 UNK     1       0.089  32.517 234.707  1.00  0.00     0.030 A 
ATOM     10  C22 UNK     1      -0.552  32.857 232.388  1.00  0.00     0.001 A 
ATOM     11  C23 UNK     1      -0.449  32.036 233.510  1.00  0.00     0.002 A 
ATOM     12  C24 UNK     1       1.250  38.018 236.504  1.00  0.00     0.017 A 
ATOM     13  C25 UNK     1       3.189  36.603 236.780  1.00  0.00     0.017 A 
ATOM     14  C26 UNK     1       1.820  38.965 237.354  1.00  0.00     0.043 A 
ATOM     15  C27 UNK     1       3.758  37.550 237.630  1.00  0.00     0.043 A 
ATOM     16  C28 UNK     1       3.074  38.731 237.918  1.00  0.00     0.116 A 
ATOM     17  H19 UNK     1       1.261  34.223 236.686  1.00  0.00     0.166 HD
ENDROOT
BRANCH   3  18
ATOM     18  C7  UNK     1       1.056  37.177 233.154  1.00  0.00     0.144 C 
BRANCH  18  19
ATOM     19  C8  UNK     1      -0.303  37.795 232.850  1.00  0.00     0.224 C 
ATOM     20  O1  UNK     1      -1.008  38.249 233.756  1.00  0.00    -0.273 OA
ATOM     21  N1  UNK     1      -0.669  37.803 231.485  1.00  0.00    -0.352 N 
BRANCH  21  22
ATOM     22  C1  UNK     1       0.204  37.251 230.441  1.00  0.00     0.125 C 
BRANCH  22  23
ATOM     23  C3  UNK     1      -0.548  36.942 229.150  1.00  0.00     0.020 C 
BRANCH  23  24
ATOM     24  C5  UNK     1      -0.694  35.438 228.901  1.00  0.00     0.002 C 
BRANCH  24  25
ATOM     25  C10 UNK     1       0.672  34.747 228.879  1.00  0.00    -0.000 C 
BRANCH  25  26
ATOM     26  C15 UNK     1       0.585  33.241 228.621  1.00  0.00    -0.005 C 
ATOM     27  C20 UNK     1       1.066  32.834 227.236  1.00  0.00     0.005 C 
ENDBRANCH  25  26
ENDBRANCH  24  25
ENDBRANCH  23  24
ENDBRANCH  22  23
ENDBRANCH  21  22
BRANCH  21  28
ATOM     28  C2  UNK     1      -1.919  38.351 231.034  1.00  0.00     0.125 C 
BRANCH  28  29
ATOM     29  C4  UNK     1      -1.867  39.867 230.864  1.00  0.00     0.020 C 
BRANCH  29  30
ATOM     30  C6  UNK     1      -2.217  40.311 229.440  1.00  0.00     0.002 C 
BRANCH  30  31
ATOM     31  C11 UNK     1      -2.210  41.837 229.320  1.00  0.00    -0.000 C 
BRANCH  31  32
ATOM     32  C16 UNK     1      -0.844  42.462 229.612  1.00  0.00    -0.005 C 
ATOM     33  C21 UNK     1       0.283  41.883 228.770  1.00  0.00     0.005 C 
ENDBRANCH  31  32
ENDBRANCH  30  31
ENDBRANCH  29  30
ENDBRANCH  28  29
ENDBRANCH  21  28
ENDBRANCH  18  19
ENDBRANCH   3  18
TORSDOF 12
ENDMDL
MODEL 7
REMARK VINA RESULT:      -5.5      2.480      5.598
REMARK  12 active torsions:
REMARK  status: ('A' for Active; 'I' for Inactive)
REMARK    1  A    between atoms: N1_3  and  C1_5 
REMARK    2  A    between atoms: N1_3  and  C2_6 
REMARK       I    between atoms: N1_3  and  C8_12 
REMARK    3  A    between atoms: C1_5  and  C3_7 
REMARK    4  A    between atoms: C2_6  and  C4_8 
REMARK    5  A    between atoms: C3_7  and  C5_9 
REMARK    6  A    between atoms: C4_8  and  C6_10 
REMARK    7  A    between atoms: C5_9  and  C10_14 
REMARK    8  A    between atoms: C6_10  and  C11_15 
REMARK    9  A    between atoms: C7_11  and  C8_12 
REMARK   10  A    between atoms: C7_11  and  C9_13 
REMARK   11  A    between atoms: C10_14  and  C15_19 
REMARK   12  A    between atoms: C11_15  and  C16_20 
ROOT
ATOM      1  F1  UNK     1       3.680  39.279 239.561  1.00  0.00    -0.206 F 
ATOM      2  N2  UNK     1       1.554  34.572 235.785  1.00  0.00    -0.354 N 
ATOM      3  C9  UNK     1       0.955  36.234 234.442  1.00  0.00    -0.009 A 
ATOM      4  C12 UNK     1       0.584  35.007 233.824  1.00  0.00    -0.000 A 
ATOM      5  C13 UNK     1       1.549  35.935 235.646  1.00  0.00     0.050 A 
ATOM      6  C14 UNK     1       0.972  33.980 234.688  1.00  0.00     0.043 A 
ATOM      7  C17 UNK     1       2.101  36.801 236.660  1.00  0.00    -0.009 A 
ATOM      8  C18 UNK     1      -0.046  34.670 232.610  1.00  0.00     0.014 A 
ATOM      9  C19 UNK     1       0.759  32.628 234.397  1.00  0.00     0.030 A 
ATOM     10  C22 UNK     1      -0.265  33.321 232.305  1.00  0.00     0.001 A 
ATOM     11  C23 UNK     1       0.133  32.317 233.186  1.00  0.00     0.002 A 
ATOM     12  C24 UNK     1       1.289  37.746 237.289  1.00  0.00     0.017 A 
ATOM     13  C25 UNK     1       3.447  36.695 237.012  1.00  0.00     0.017 A 
ATOM     14  C26 UNK     1       1.822  38.583 238.268  1.00  0.00     0.043 A 
ATOM     15  C27 UNK     1       3.979  37.531 237.993  1.00  0.00     0.043 A 
ATOM     16  C28 UNK     1       3.167  38.476 238.620  1.00  0.00     0.116 A 
ATOM     17  H19 UNK     1       1.929  34.069 236.578  1.00  0.00     0.166 HD
ENDROOT
BRANCH   3  18
ATOM     18  C7  UNK     1       0.734  37.606 233.877  1.00  0.00     0.144 C 
BRANCH  18  19
ATOM     19  C8  UNK     1      -0.698  38.091 234.062  1.00  0.00     0.224 C 
ATOM     20  O1  UNK     1      -1.163  38.272 235.191  1.00  0.00    -0.273 OA
ATOM     21  N1  UNK     1      -1.420  38.308 232.866  1.00  0.00    -0.352 N 
BRANCH  21  22
ATOM     22  C1  UNK     1      -0.824  38.080 231.544  1.00  0.00     0.125 C 
BRANCH  22  23
ATOM     23  C3  UNK     1      -1.640  38.705 230.417  1.00  0.00     0.020 C 
BRANCH  23  24
ATOM     24  C5  UNK     1      -0.853  39.764 229.639  1.00  0.00     0.002 C 
BRANCH  24  25
ATOM     25  C10 UNK     1      -1.308  41.176 230.015  1.00  0.00    -0.000 C 
BRANCH  25  26
ATOM     26  C15 UNK     1      -0.874  42.242 229.005  1.00  0.00    -0.005 C 
ATOM     27  C20 UNK     1       0.036  43.306 229.599  1.00  0.00     0.005 C 
ENDBRANCH  25  26
ENDBRANCH  24  25
ENDBRANCH  23  24
ENDBRANCH  22  23
ENDBRANCH  21  22
BRANCH  21  28
ATOM     28  C2  UNK     1      -2.782  38.767 232.871  1.00  0.00     0.125 C 
BRANCH  28  29
ATOM     29  C4  UNK     1      -3.787  37.619 232.914  1.00  0.00     0.020 C 
BRANCH  29  30
ATOM     30  C6  UNK     1      -4.696  37.678 234.147  1.00  0.00     0.002 C 
BRANCH  30  31
ATOM     31  C11 UNK     1      -4.220  36.709 235.231  1.00  0.00    -0.000 C 
BRANCH  31  32
ATOM     32  C16 UNK     1      -3.387  35.547 234.683  1.00  0.00    -0.005 C 
ATOM     33  C21 UNK     1      -2.485  34.901 235.723  1.00  0.00     0.005 C 
ENDBRANCH  31  32
ENDBRANCH  30  31
ENDBRANCH  29  30
ENDBRANCH  28  29
ENDBRANCH  21  28
ENDBRANCH  18  19
ENDBRANCH   3  18
TORSDOF 12
ENDMDL
MODEL 8
REMARK VINA RESULT:      -5.4      2.754      6.909
REMARK  12 active torsions:
REMARK  status: ('A' for Active; 'I' for Inactive)
REMARK    1  A    between atoms: N1_3  and  C1_5 
REMARK    2  A    between atoms: N1_3  and  C2_6 
REMARK       I    between atoms: N1_3  and  C8_12 
REMARK    3  A    between atoms: C1_5  and  C3_7 
REMARK    4  A    between atoms: C2_6  and  C4_8 
REMARK    5  A    between atoms: C3_7  and  C5_9 
REMARK    6  A    between atoms: C4_8  and  C6_10 
REMARK    7  A    between atoms: C5_9  and  C10_14 
REMARK    8  A    between atoms: C6_10  and  C11_15 
REMARK    9  A    between atoms: C7_11  and  C8_12 
REMARK   10  A    between atoms: C7_11  and  C9_13 
REMARK   11  A    between atoms: C10_14  and  C15_19 
REMARK   12  A    between atoms: C11_15  and  C16_20 
ROOT
ATOM      1  F1  UNK     1      -4.593  34.293 236.335  1.00  0.00    -0.206 F 
ATOM      2  N2  UNK     1       0.862  36.265 239.037  1.00  0.00    -0.354 N 
ATOM      3  C9  UNK     1       0.787  37.849 237.484  1.00  0.00    -0.009 A 
ATOM      4  C12 UNK     1       1.956  38.050 238.270  1.00  0.00    -0.000 A 
ATOM      5  C13 UNK     1       0.135  36.744 237.980  1.00  0.00     0.050 A 
ATOM      6  C14 UNK     1       1.979  37.042 239.237  1.00  0.00     0.043 A 
ATOM      7  C17 UNK     1      -1.090  36.109 237.554  1.00  0.00    -0.009 A 
ATOM      8  C18 UNK     1       3.002  38.995 238.250  1.00  0.00     0.014 A 
ATOM      9  C19 UNK     1       2.998  36.932 240.189  1.00  0.00     0.030 A 
ATOM     10  C22 UNK     1       4.028  38.897 239.198  1.00  0.00     0.001 A 
ATOM     11  C23 UNK     1       4.024  37.881 240.151  1.00  0.00     0.002 A 
ATOM     12  C24 UNK     1      -1.199  35.601 236.259  1.00  0.00     0.017 A 
ATOM     13  C25 UNK     1      -2.166  36.004 238.436  1.00  0.00     0.017 A 
ATOM     14  C26 UNK     1      -2.382  34.988 235.848  1.00  0.00     0.043 A 
ATOM     15  C27 UNK     1      -3.348  35.390 238.024  1.00  0.00     0.043 A 
ATOM     16  C28 UNK     1      -3.456  34.882 236.730  1.00  0.00     0.116 A 
ATOM     17  H19 UNK     1       0.618  35.456 239.593  1.00  0.00     0.166 HD
ENDROOT
BRANCH   3  18
ATOM     18  C7  UNK     1       0.350  38.694 236.324  1.00  0.00     0.144 C 
BRANCH  18  19
ATOM     19  C8  UNK     1       0.982  38.253 235.009  1.00  0.00     0.224 C 
ATOM     20  O1  UNK     1       2.206  38.143 234.902  1.00  0.00    -0.273 OA
ATOM     21  N1  UNK     1       0.070  37.990 233.962  1.00  0.00    -0.352 N 
BRANCH  21  22
ATOM     22  C1  UNK     1      -1.380  38.134 234.136  1.00  0.00     0.125 C 
BRANCH  22  23
ATOM     23  C3  UNK     1      -2.018  39.004 233.058  1.00  0.00     0.020 C 
BRANCH  23  24
ATOM     24  C5  UNK     1      -3.390  38.484 232.617  1.00  0.00     0.002 C 
BRANCH  24  25
ATOM     25  C10 UNK     1      -3.573  37.014 233.006  1.00  0.00    -0.000 C 
BRANCH  25  26
ATOM     26  C15 UNK     1      -4.940  36.717 233.625  1.00  0.00    -0.005 C 
ATOM     27  C20 UNK     1      -5.218  37.510 234.893  1.00  0.00     0.005 C 
ENDBRANCH  25  26
ENDBRANCH  24  25
ENDBRANCH  23  24
ENDBRANCH  22  23
ENDBRANCH  21  22
BRANCH  21  28
ATOM     28  C2  UNK     1       0.508  37.565 232.660  1.00  0.00     0.125 C 
BRANCH  28  29
ATOM     29  C4  UNK     1       0.316  36.067 232.437  1.00  0.00     0.020 C 
BRANCH  29  30
ATOM     30  C6  UNK     1       0.422  35.675 230.960  1.00  0.00     0.002 C 
BRANCH  30  31
ATOM     31  C11 UNK     1       0.018  36.837 230.049  1.00  0.00    -0.000 C 
BRANCH  31  32
ATOM     32  C16 UNK     1      -1.397  36.701 229.484  1.00  0.00    -0.005 C 
ATOM     33  C21 UNK     1      -2.104  38.033 229.285  1.00  0.00     0.005 C 
ENDBRANCH  31  32
ENDBRANCH  30  31
ENDBRANCH  29  30
ENDBRANCH  28  29
ENDBRANCH  21  28
ENDBRANCH  18  19
ENDBRANCH   3  18
TORSDOF 12
ENDMDL
MODEL 9
REMARK VINA RESULT:      -5.3      2.244      4.789
REMARK  12 active torsions:
REMARK  status: ('A' for Active; 'I' for Inactive)
REMARK    1  A    between atoms: N1_3  and  C1_5 
REMARK    2  A    between atoms: N1_3  and  C2_6 
REMARK       I    between atoms: N1_3  and  C8_12 
REMARK    3  A    between atoms: C1_5  and  C3_7 
REMARK    4  A    between atoms: C2_6  and  C4_8 
REMARK    5  A    between atoms: C3_7  and  C5_9 
REMARK    6  A    between atoms: C4_8  and  C6_10 
REMARK    7  A    between atoms: C5_9  and  C10_14 
REMARK    8  A    between atoms: C6_10  and  C11_15 
REMARK    9  A    between atoms: C7_11  and  C8_12 
REMARK   10  A    between atoms: C7_11  and  C9_13 
REMARK   11  A    between atoms: C10_14  and  C15_19 
REMARK   12  A    between atoms: C11_15  and  C16_20 
ROOT
ATOM      1  F1  UNK     1       3.400  39.643 239.303  1.00  0.00    -0.206 F 
ATOM      2  N2  UNK     1       1.749  34.550 235.799  1.00  0.00    -0.354 N 
ATOM      3  C9  UNK     1       0.653  36.040 234.572  1.00  0.00    -0.009 A 
ATOM      4  C12 UNK     1       0.451  34.755 233.997  1.00  0.00    -0.000 A 
ATOM      5  C13 UNK     1       1.455  35.883 235.679  1.00  0.00     0.050 A 
ATOM      6  C14 UNK     1       1.150  33.838 234.786  1.00  0.00     0.043 A 
ATOM      7  C17 UNK     1       1.959  36.857 236.618  1.00  0.00    -0.009 A 
ATOM      8  C18 UNK     1      -0.261  34.281 232.877  1.00  0.00     0.014 A 
ATOM      9  C19 UNK     1       1.171  32.466 234.511  1.00  0.00     0.030 A 
ATOM     10  C22 UNK     1      -0.248  32.911 232.589  1.00  0.00     0.001 A 
ATOM     11  C23 UNK     1       0.458  32.019 233.395  1.00  0.00     0.002 A 
ATOM     12  C24 UNK     1       1.071  37.632 237.364  1.00  0.00     0.017 A 
ATOM     13  C25 UNK     1       3.335  37.024 236.779  1.00  0.00     0.017 A 
ATOM     14  C26 UNK     1       1.558  38.573 238.270  1.00  0.00     0.043 A 
ATOM     15  C27 UNK     1       3.821  37.965 237.687  1.00  0.00     0.043 A 
ATOM     16  C28 UNK     1       2.932  38.739 238.432  1.00  0.00     0.116 A 
ATOM     17  H19 UNK     1       2.322  34.143 236.527  1.00  0.00     0.166 HD
ENDROOT
BRANCH   3  18
ATOM     18  C7  UNK     1       0.089  37.333 234.060  1.00  0.00     0.144 C 
BRANCH  18  19
ATOM     19  C8  UNK     1      -1.411  37.451 234.298  1.00  0.00     0.224 C 
ATOM     20  O1  UNK     1      -1.923  37.017 235.334  1.00  0.00    -0.273 OA
ATOM     21  N1  UNK     1      -2.137  38.081 233.262  1.00  0.00    -0.352 N 
BRANCH  21  22
ATOM     22  C1  UNK     1      -1.485  38.582 232.047  1.00  0.00     0.125 C 
BRANCH  22  23
ATOM     23  C3  UNK     1      -1.388  37.523 230.953  1.00  0.00     0.020 C 
BRANCH  23  24
ATOM     24  C5  UNK     1      -0.040  37.551 230.225  1.00  0.00     0.002 C 
BRANCH  24  25
ATOM     25  C10 UNK     1       0.646  36.184 230.283  1.00  0.00    -0.000 C 
BRANCH  25  26
ATOM     26  C15 UNK     1       0.634  35.443 228.944  1.00  0.00    -0.005 C 
ATOM     27  C20 UNK     1       0.264  33.972 229.069  1.00  0.00     0.005 C 
ENDBRANCH  25  26
ENDBRANCH  24  25
ENDBRANCH  23  24
ENDBRANCH  22  23
ENDBRANCH  21  22
BRANCH  21  28
ATOM     28  C2  UNK     1      -3.560  38.270 233.336  1.00  0.00     0.125 C 
BRANCH  28  29
ATOM     29  C4  UNK     1      -4.340  37.029 232.911  1.00  0.00     0.020 C 
BRANCH  29  30
ATOM     30  C6  UNK     1      -5.466  36.678 233.890  1.00  0.00     0.002 C 
BRANCH  30  31
ATOM     31  C11 UNK     1      -5.595  37.738 234.986  1.00  0.00    -0.000 C 
BRANCH  31  32
ATOM     32  C16 UNK     1      -6.980  38.385 235.045  1.00  0.00    -0.005 C 
ATOM     33  C21 UNK     1      -8.115  37.423 234.726  1.00  0.00     0.005 C 
ENDBRANCH  31  32
ENDBRANCH  30  31
ENDBRANCH  29  30
ENDBRANCH  28  29
ENDBRANCH  21  28
ENDBRANCH  18  19
ENDBRANCH   3  18
TORSDOF 12
ENDMDL
