MODEL 1
REMARK VINA RESULT:      -7.2      0.000      0.000
REMARK  0 active torsions:
REMARK  status: ('A' for Active; 'I' for Inactive)
ROOT
ATOM      1 Cl1  UNK     1       0.355  37.167 229.659  1.00  0.00    -0.084 Cl
ATOM      2  N1  UNK     1       1.695  36.907 236.760  1.00  0.00    -0.363 N 
ATOM      3  N2  UNK     1       2.591  38.322 239.062  1.00  0.00     0.087 N 
ATOM      4  N3  UNK     1       1.020  36.523 234.636  1.00  0.00    -0.340 N 
ATOM      5  H3  UNK     1       0.783  37.515 234.656  1.00  0.00     0.167 HD
ATOM      6  N4  UNK     1       0.369  33.607 234.401  1.00  0.00    -0.354 N 
ATOM      7  C1  UNK     1       2.348  38.204 236.606  1.00  0.00     0.154 C 
ATOM      8  C2  UNK     1       1.042  36.687 238.047  1.00  0.00     0.154 C 
ATOM      9  C3  UNK     1       3.296  38.459 237.779  1.00  0.00     0.291 C 
ATOM     10  C4  UNK     1       2.018  36.975 239.189  1.00  0.00     0.291 C 
ATOM     11  C5  UNK     1       1.552  36.048 235.725  1.00  0.00     0.116 C 
ATOM     12  C6  UNK     1       2.005  34.641 235.952  1.00  0.00     0.035 A 
ATOM     13  C7  UNK     1       3.493  38.604 240.177  1.00  0.00     0.310 C 
ATOM     14  C8  UNK     1       1.336  33.535 235.414  1.00  0.00     0.046 A 
ATOM     15  C9  UNK     1       0.730  35.855 233.446  1.00  0.00     0.062 A 
ATOM     16  C10 UNK     1       0.296  34.529 233.346  1.00  0.00     0.059 A 
ATOM     17  C11 UNK     1       3.080  34.437 236.839  1.00  0.00     0.017 A 
ATOM     18  C12 UNK     1       1.734  32.246 235.829  1.00  0.00     0.030 A 
ATOM     19  C13 UNK     1       3.467  33.154 237.222  1.00  0.00     0.001 A 
ATOM     20  C14 UNK     1       0.724  36.658 232.288  1.00  0.00     0.055 A 
ATOM     21  C15 UNK     1       2.783  32.054 236.726  1.00  0.00     0.002 A 
ATOM     22  C16 UNK     1      -0.139  34.046 232.093  1.00  0.00     0.033 A 
ATOM     23  C17 UNK     1       0.304  36.165 231.054  1.00  0.00     0.036 A 
ATOM     24  C18 UNK     1      -0.138  34.855 230.958  1.00  0.00     0.026 A 
ATOM     25  H13 UNK     1      -0.158  32.751 234.254  1.00  0.00     0.166 HD
ENDROOT
TORSDOF 0
ENDMDL
MODEL 2
REMARK VINA RESULT:      -7.0      2.840      6.638
REMARK  0 active torsions:
REMARK  status: ('A' for Active; 'I' for Inactive)
ROOT
ATOM      1 Cl1  UNK     1       4.811  38.245 239.800  1.00  0.00    -0.084 Cl
ATOM      2  N1  UNK     1       1.084  33.850 235.430  1.00  0.00    -0.363 N 
ATOM      3  N2  UNK     1       0.855  31.239 234.321  1.00  0.00     0.087 N 
ATOM      4  N3  UNK     1       1.814  35.539 236.745  1.00  0.00    -0.340 N 
ATOM      5  H3  UNK     1       2.107  34.779 237.359  1.00  0.00     0.167 HD
ATOM      6  N4  UNK     1       0.214  37.981 236.063  1.00  0.00    -0.354 N 
ATOM      7  C1  UNK     1       2.187  32.903 235.570  1.00  0.00     0.154 C 
ATOM      8  C2  UNK     1      -0.235  33.251 235.255  1.00  0.00     0.154 C 
ATOM      9  C3  UNK     1       2.166  31.897 234.418  1.00  0.00     0.291 C 
ATOM     10  C4  UNK     1      -0.204  32.236 234.111  1.00  0.00     0.291 C 
ATOM     11  C5  UNK     1       1.249  35.178 235.629  1.00  0.00     0.116 C 
ATOM     12  C6  UNK     1       0.747  36.087 234.553  1.00  0.00     0.035 A 
ATOM     13  C7  UNK     1       0.853  30.252 233.243  1.00  0.00     0.310 C 
ATOM     14  C8  UNK     1       0.155  37.326 234.824  1.00  0.00     0.046 A 
ATOM     15  C9  UNK     1       2.072  36.829 237.213  1.00  0.00     0.062 A 
ATOM     16  C10 UNK     1       1.253  37.944 237.006  1.00  0.00     0.059 A 
ATOM     17  C11 UNK     1       0.774  35.607 233.229  1.00  0.00     0.017 A 
ATOM     18  C12 UNK     1      -0.446  38.028 233.757  1.00  0.00     0.030 A 
ATOM     19  C13 UNK     1       0.190  36.326 232.188  1.00  0.00     0.001 A 
ATOM     20  C14 UNK     1       3.162  36.945 238.098  1.00  0.00     0.055 A 
ATOM     21  C15 UNK     1      -0.435  37.534 232.455  1.00  0.00     0.002 A 
ATOM     22  C16 UNK     1       1.543  39.140 237.697  1.00  0.00     0.033 A 
ATOM     23  C17 UNK     1       3.444  38.136 238.763  1.00  0.00     0.036 A 
ATOM     24  C18 UNK     1       2.626  39.237 238.569  1.00  0.00     0.026 A 
ATOM     25  H13 UNK     1      -0.418  38.770 236.158  1.00  0.00     0.166 HD
ENDROOT
TORSDOF 0
ENDMDL
MODEL 3
REMARK VINA RESULT:      -6.8      3.528      6.730
REMARK  0 active torsions:
REMARK  status: ('A' for Active; 'I' for Inactive)
ROOT
ATOM      1 Cl1  UNK     1       4.702  37.337 241.280  1.00  0.00    -0.084 Cl
ATOM      2  N1  UNK     1      -0.867  35.160 237.212  1.00  0.00    -0.363 N 
ATOM      3  N2  UNK     1      -2.943  33.246 236.855  1.00  0.00     0.087 N 
ATOM      4  N3  UNK     1       0.830  36.291 238.190  1.00  0.00    -0.340 N 
ATOM      5  H3  UNK     1       0.420  35.928 239.051  1.00  0.00     0.167 HD
ATOM      6  N4  UNK     1       1.658  38.484 236.321  1.00  0.00    -0.354 N 
ATOM      7  C1  UNK     1      -0.868  33.934 238.006  1.00  0.00     0.154 C 
ATOM      8  C2  UNK     1      -2.175  35.591 236.728  1.00  0.00     0.154 C 
ATOM      9  C3  UNK     1      -1.593  32.819 237.251  1.00  0.00     0.291 C 
ATOM     10  C4  UNK     1      -2.872  34.439 236.001  1.00  0.00     0.291 C 
ATOM     11  C5  UNK     1       0.235  35.934 237.088  1.00  0.00     0.116 C 
ATOM     12  C6  UNK     1       0.640  36.310 235.698  1.00  0.00     0.035 A 
ATOM     13  C7  UNK     1      -3.643  32.162 236.167  1.00  0.00     0.310 C 
ATOM     14  C8  UNK     1       1.178  37.562 235.379  1.00  0.00     0.046 A 
ATOM     15  C9  UNK     1       1.953  37.105 238.349  1.00  0.00     0.062 A 
ATOM     16  C10 UNK     1       2.269  38.213 237.555  1.00  0.00     0.059 A 
ATOM     17  C11 UNK     1       0.351  35.396 234.665  1.00  0.00     0.017 A 
ATOM     18  C12 UNK     1       1.362  37.884 234.017  1.00  0.00     0.030 A 
ATOM     19  C13 UNK     1       0.558  35.729 233.328  1.00  0.00     0.001 A 
ATOM     20  C14 UNK     1       2.714  36.864 239.509  1.00  0.00     0.055 A 
ATOM     21  C15 UNK     1       1.051  36.983 233.001  1.00  0.00     0.002 A 
ATOM     22  C16 UNK     1       3.332  39.053 237.950  1.00  0.00     0.033 A 
ATOM     23  C17 UNK     1       3.771  37.694 239.880  1.00  0.00     0.036 A 
ATOM     24  C18 UNK     1       4.076  38.799 239.101  1.00  0.00     0.026 A 
ATOM     25  H13 UNK     1       1.837  39.413 235.954  1.00  0.00     0.166 HD
ENDROOT
TORSDOF 0
ENDMDL
MODEL 4
REMARK VINA RESULT:      -6.8      3.055      6.333
REMARK  0 active torsions:
REMARK  status: ('A' for Active; 'I' for Inactive)
ROOT
ATOM      1 Cl1  UNK     1       4.741  29.856 237.457  1.00  0.00    -0.084 Cl
ATOM      2  N1  UNK     1       0.875  35.815 236.095  1.00  0.00    -0.363 N 
ATOM      3  N2  UNK     1      -0.669  37.261 234.192  1.00  0.00     0.087 N 
ATOM      4  N3  UNK     1       2.038  34.117 237.033  1.00  0.00    -0.340 N 
ATOM      5  H3  UNK     1       1.492  33.543 236.390  1.00  0.00     0.167 HD
ATOM      6  N4  UNK     1       2.919  35.011 239.755  1.00  0.00    -0.354 N 
ATOM      7  C1  UNK     1       0.887  35.408 234.693  1.00  0.00     0.154 C 
ATOM      8  C2  UNK     1      -0.319  36.534 236.527  1.00  0.00     0.154 C 
ATOM      9  C3  UNK     1       0.588  36.609 233.794  1.00  0.00     0.291 C 
ATOM     10  C4  UNK     1      -0.593  37.711 235.588  1.00  0.00     0.291 C 
ATOM     11  C5  UNK     1       1.819  35.399 236.971  1.00  0.00     0.116 C 
ATOM     12  C6  UNK     1       2.494  36.456 237.785  1.00  0.00     0.035 A 
ATOM     13  C7  UNK     1      -0.968  38.385 233.305  1.00  0.00     0.310 C 
ATOM     14  C8  UNK     1       2.867  36.260 239.120  1.00  0.00     0.046 A 
ATOM     15  C9  UNK     1       2.921  33.424 237.863  1.00  0.00     0.062 A 
ATOM     16  C10 UNK     1       3.230  33.768 239.183  1.00  0.00     0.059 A 
ATOM     17  C11 UNK     1       2.645  37.730 237.203  1.00  0.00     0.017 A 
ATOM     18  C12 UNK     1       3.334  37.371 239.854  1.00  0.00     0.030 A 
ATOM     19  C13 UNK     1       3.126  38.809 237.942  1.00  0.00     0.001 A 
ATOM     20  C14 UNK     1       3.389  32.196 237.356  1.00  0.00     0.055 A 
ATOM     21  C15 UNK     1       3.458  38.633 239.277  1.00  0.00     0.002 A 
ATOM     22  C16 UNK     1       3.992  32.869 239.961  1.00  0.00     0.033 A 
ATOM     23  C17 UNK     1       4.152  31.324 238.131  1.00  0.00     0.036 A 
ATOM     24  C18 UNK     1       4.448  31.659 239.443  1.00  0.00     0.026 A 
ATOM     25  H13 UNK     1       3.020  35.050 240.765  1.00  0.00     0.166 HD
ENDROOT
TORSDOF 0
ENDMDL
MODEL 5
REMARK VINA RESULT:      -6.5      3.875      6.839
REMARK  0 active torsions:
REMARK  status: ('A' for Active; 'I' for Inactive)
ROOT
ATOM      1 Cl1  UNK     1       2.324  36.052 240.131  1.00  0.00    -0.084 Cl
ATOM      2  N1  UNK     1      -2.621  36.876 234.919  1.00  0.00    -0.363 N 
ATOM      3  N2  UNK     1      -5.348  36.573 234.163  1.00  0.00     0.087 N 
ATOM      4  N3  UNK     1      -0.776  36.932 236.226  1.00  0.00    -0.340 N 
ATOM      5  H3  UNK     1      -1.454  37.077 236.975  1.00  0.00     0.167 HD
ATOM      6  N4  UNK     1       1.538  37.736 234.500  1.00  0.00    -0.354 N 
ATOM      7  C1  UNK     1      -3.525  36.096 235.760  1.00  0.00     0.154 C 
ATOM      8  C2  UNK     1      -3.261  37.894 234.092  1.00  0.00     0.154 C 
ATOM      9  C3  UNK     1      -4.659  35.514 234.915  1.00  0.00     0.291 C 
ATOM     10  C4  UNK     1      -4.402  37.274 233.283  1.00  0.00     0.291 C 
ATOM     11  C5  UNK     1      -1.276  36.784 235.033  1.00  0.00     0.116 C 
ATOM     12  C6  UNK     1      -0.509  36.542 233.772  1.00  0.00     0.035 A 
ATOM     13  C7  UNK     1      -6.455  36.016 233.386  1.00  0.00     0.310 C 
ATOM     14  C8  UNK     1       0.742  37.118 233.525  1.00  0.00     0.046 A 
ATOM     15  C9  UNK     1       0.564  36.917 236.616  1.00  0.00     0.062 A 
ATOM     16  C10 UNK     1       1.632  37.416 235.863  1.00  0.00     0.059 A 
ATOM     17  C11 UNK     1      -1.141  35.796 232.758  1.00  0.00     0.017 A 
ATOM     18  C12 UNK     1       1.303  36.973 232.238  1.00  0.00     0.030 A 
ATOM     19  C13 UNK     1      -0.561  35.651 231.499  1.00  0.00     0.001 A 
ATOM     20  C14 UNK     1       0.802  36.514 237.945  1.00  0.00     0.055 A 
ATOM     21  C15 UNK     1       0.659  36.253 231.233  1.00  0.00     0.002 A 
ATOM     22  C16 UNK     1       2.906  37.507 236.463  1.00  0.00     0.033 A 
ATOM     23  C17 UNK     1       2.069  36.596 238.521  1.00  0.00     0.036 A 
ATOM     24  C18 UNK     1       3.124  37.103 237.779  1.00  0.00     0.026 A 
ATOM     25  H13 UNK     1       2.321  38.269 234.134  1.00  0.00     0.166 HD
ENDROOT
TORSDOF 0
ENDMDL
MODEL 6
REMARK VINA RESULT:      -6.4      5.542      8.490
REMARK  0 active torsions:
REMARK  status: ('A' for Active; 'I' for Inactive)
ROOT
ATOM      1 Cl1  UNK     1      -6.864  37.321 235.040  1.00  0.00    -0.084 Cl
ATOM      2  N1  UNK     1      -2.410  40.423 230.261  1.00  0.00    -0.363 N 
ATOM      3  N2  UNK     1      -2.154  42.238 228.084  1.00  0.00     0.087 N 
ATOM      4  N3  UNK     1      -3.341  39.309 231.995  1.00  0.00    -0.340 N 
ATOM      5  H3  UNK     1      -3.968  40.113 232.023  1.00  0.00     0.167 HD
ATOM      6  N4  UNK     1      -1.251  37.486 233.132  1.00  0.00    -0.354 N 
ATOM      7  C1  UNK     1      -3.606  40.918 229.585  1.00  0.00     0.154 C 
ATOM      8  C2  UNK     1      -1.240  41.291 230.175  1.00  0.00     0.154 C 
ATOM      9  C3  UNK     1      -3.277  41.291 228.138  1.00  0.00     0.291 C 
ATOM     10  C4  UNK     1      -0.962  41.656 228.715  1.00  0.00     0.291 C 
ATOM     11  C5  UNK     1      -2.437  39.330 231.058  1.00  0.00     0.116 C 
ATOM     12  C6  UNK     1      -1.413  38.274 230.787  1.00  0.00     0.035 A 
ATOM     13  C7  UNK     1      -1.869  42.619 226.701  1.00  0.00     0.310 C 
ATOM     14  C8  UNK     1      -0.800  37.536 231.806  1.00  0.00     0.046 A 
ATOM     15  C9  UNK     1      -3.566  38.331 232.965  1.00  0.00     0.062 A 
ATOM     16  C10 UNK     1      -2.573  37.571 233.594  1.00  0.00     0.059 A 
ATOM     17  C11 UNK     1      -0.979  38.114 229.457  1.00  0.00     0.017 A 
ATOM     18  C12 UNK     1       0.278  36.692 231.464  1.00  0.00     0.030 A 
ATOM     19  C13 UNK     1       0.076  37.261 229.139  1.00  0.00     0.001 A 
ATOM     20  C14 UNK     1      -4.888  38.247 233.444  1.00  0.00     0.055 A 
ATOM     21  C15 UNK     1       0.717  36.558 230.148  1.00  0.00     0.002 A 
ATOM     22  C16 UNK     1      -2.931  36.756 234.690  1.00  0.00     0.033 A 
ATOM     23  C17 UNK     1      -5.230  37.427 234.518  1.00  0.00     0.036 A 
ATOM     24  C18 UNK     1      -4.245  36.684 235.149  1.00  0.00     0.026 A 
ATOM     25  H13 UNK     1      -0.599  37.067 233.788  1.00  0.00     0.166 HD
ENDROOT
TORSDOF 0
ENDMDL
MODEL 7
REMARK VINA RESULT:      -6.4      2.818      4.820
REMARK  0 active torsions:
REMARK  status: ('A' for Active; 'I' for Inactive)
ROOT
ATOM      1 Cl1  UNK     1      -5.003  36.603 233.042  1.00  0.00    -0.084 Cl
ATOM      2  N1  UNK     1       0.993  34.705 236.613  1.00  0.00    -0.363 N 
ATOM      3  N2  UNK     1       2.360  32.657 238.040  1.00  0.00     0.087 N 
ATOM      4  N3  UNK     1      -0.578  35.715 235.337  1.00  0.00    -0.340 N 
ATOM      5  H3  UNK     1      -0.757  34.765 235.012  1.00  0.00     0.167 HD
ATOM      6  N4  UNK     1       0.248  38.573 234.969  1.00  0.00    -0.354 N 
ATOM      7  C1  UNK     1       0.270  33.509 237.036  1.00  0.00     0.154 C 
ATOM      8  C2  UNK     1       2.432  34.535 236.435  1.00  0.00     0.154 C 
ATOM      9  C3  UNK     1       0.930  32.906 238.276  1.00  0.00     0.291 C 
ATOM     10  C4  UNK     1       3.046  33.908 237.689  1.00  0.00     0.291 C 
ATOM     11  C5  UNK     1       0.353  35.837 236.240  1.00  0.00     0.116 C 
ATOM     12  C6  UNK     1       0.796  37.107 236.893  1.00  0.00     0.035 A 
ATOM     13  C7  UNK     1       2.977  32.046 239.216  1.00  0.00     0.310 C 
ATOM     14  C8  UNK     1       0.850  38.329 236.212  1.00  0.00     0.046 A 
ATOM     15  C9  UNK     1      -1.362  36.713 234.755  1.00  0.00     0.062 A 
ATOM     16  C10 UNK     1      -0.933  38.012 234.460  1.00  0.00     0.059 A 
ATOM     17  C11 UNK     1       1.286  37.026 238.211  1.00  0.00     0.017 A 
ATOM     18  C12 UNK     1       1.449  39.430 236.860  1.00  0.00     0.030 A 
ATOM     19  C13 UNK     1       1.857  38.132 238.839  1.00  0.00     0.001 A 
ATOM     20  C14 UNK     1      -2.624  36.295 234.289  1.00  0.00     0.055 A 
ATOM     21  C15 UNK     1       1.952  39.335 238.156  1.00  0.00     0.002 A 
ATOM     22  C16 UNK     1      -1.775  38.851 233.701  1.00  0.00     0.033 A 
ATOM     23  C17 UNK     1      -3.451  37.140 233.552  1.00  0.00     0.036 A 
ATOM     24  C18 UNK     1      -3.021  38.422 233.249  1.00  0.00     0.026 A 
ATOM     25  H13 UNK     1       0.534  39.438 234.520  1.00  0.00     0.166 HD
ENDROOT
TORSDOF 0
ENDMDL
MODEL 8
REMARK VINA RESULT:      -6.3      3.688      5.899
REMARK  0 active torsions:
REMARK  status: ('A' for Active; 'I' for Inactive)
ROOT
ATOM      1 Cl1  UNK     1       4.839  30.023 241.262  1.00  0.00    -0.084 Cl
ATOM      2  N1  UNK     1       2.713  35.846 237.537  1.00  0.00    -0.363 N 
ATOM      3  N2  UNK     1       1.933  38.580 237.647  1.00  0.00     0.087 N 
ATOM      4  N3  UNK     1       3.506  33.838 238.212  1.00  0.00    -0.340 N 
ATOM      5  H3  UNK     1       3.966  34.393 238.933  1.00  0.00     0.167 HD
ATOM      6  N4  UNK     1       3.472  32.003 235.842  1.00  0.00    -0.354 N 
ATOM      7  C1  UNK     1       2.405  36.461 238.825  1.00  0.00     0.154 C 
ATOM      8  C2  UNK     1       3.153  36.767 236.495  1.00  0.00     0.154 C 
ATOM      9  C3  UNK     1       1.423  37.618 238.634  1.00  0.00     0.291 C 
ATOM     10  C4  UNK     1       2.155  37.918 236.354  1.00  0.00     0.291 C 
ATOM     11  C5  UNK     1       2.761  34.503 237.376  1.00  0.00     0.116 C 
ATOM     12  C6  UNK     1       1.968  33.933 236.245  1.00  0.00     0.035 A 
ATOM     13  C7  UNK     1       1.006  39.702 237.496  1.00  0.00     0.310 C 
ATOM     14  C8  UNK     1       2.412  32.846 235.482  1.00  0.00     0.046 A 
ATOM     15  C9  UNK     1       3.757  32.465 238.251  1.00  0.00     0.062 A 
ATOM     16  C10 UNK     1       3.874  31.631 237.134  1.00  0.00     0.059 A 
ATOM     17  C11 UNK     1       0.786  34.603 235.874  1.00  0.00     0.017 A 
ATOM     18  C12 UNK     1       1.679  32.496 234.327  1.00  0.00     0.030 A 
ATOM     19  C13 UNK     1       0.068  34.228 234.740  1.00  0.00     0.001 A 
ATOM     20  C14 UNK     1       4.078  31.945 239.521  1.00  0.00     0.055 A 
ATOM     21  C15 UNK     1       0.524  33.180 233.955  1.00  0.00     0.002 A 
ATOM     22  C16 UNK     1       4.317  30.304 237.318  1.00  0.00     0.033 A 
ATOM     23  C17 UNK     1       4.501  30.628 239.689  1.00  0.00     0.036 A 
ATOM     24  C18 UNK     1       4.629  29.805 238.582  1.00  0.00     0.026 A 
ATOM     25  H13 UNK     1       3.795  31.386 235.103  1.00  0.00     0.166 HD
ENDROOT
TORSDOF 0
ENDMDL
MODEL 9
REMARK VINA RESULT:      -6.3      3.897      4.916
REMARK  0 active torsions:
REMARK  status: ('A' for Active; 'I' for Inactive)
ROOT
ATOM      1 Cl1  UNK     1      -7.323  38.152 235.264  1.00  0.00    -0.084 Cl
ATOM      2  N1  UNK     1      -0.357  36.522 236.324  1.00  0.00    -0.363 N 
ATOM      3  N2  UNK     1       1.904  36.760 238.037  1.00  0.00     0.087 N 
ATOM      4  N3  UNK     1      -2.498  36.655 235.608  1.00  0.00    -0.340 N 
ATOM      5  H3  UNK     1      -2.708  36.672 236.606  1.00  0.00     0.167 HD
ATOM      6  N4  UNK     1      -2.611  35.476 232.854  1.00  0.00    -0.354 N 
ATOM      7  C1  UNK     1      -0.384  37.471 237.434  1.00  0.00     0.154 C 
ATOM      8  C2  UNK     1       0.545  35.388 236.495  1.00  0.00     0.154 C 
ATOM      9  C3  UNK     1       1.037  37.919 237.778  1.00  0.00     0.291 C 
ATOM     10  C4  UNK     1       1.947  35.881 236.860  1.00  0.00     0.291 C 
ATOM     11  C5  UNK     1      -1.235  36.594 235.298  1.00  0.00     0.116 C 
ATOM     12  C6  UNK     1      -0.659  36.575 233.918  1.00  0.00     0.035 A 
ATOM     13  C7  UNK     1       3.251  37.196 238.402  1.00  0.00     0.310 C 
ATOM     14  C8  UNK     1      -1.283  35.926 232.846  1.00  0.00     0.046 A 
ATOM     15  C9  UNK     1      -3.602  36.702 234.754  1.00  0.00     0.062 A 
ATOM     16  C10 UNK     1      -3.705  36.041 233.526  1.00  0.00     0.059 A 
ATOM     17  C11 UNK     1       0.620  37.138 233.738  1.00  0.00     0.017 A 
ATOM     18  C12 UNK     1      -0.576  35.813 231.629  1.00  0.00     0.030 A 
ATOM     19  C13 UNK     1       1.292  37.030 232.522  1.00  0.00     0.001 A 
ATOM     20  C14 UNK     1      -4.745  37.337 235.280  1.00  0.00     0.055 A 
ATOM     21  C15 UNK     1       0.698  36.353 231.468  1.00  0.00     0.002 A 
ATOM     22  C16 UNK     1      -4.951  36.026 232.863  1.00  0.00     0.033 A 
ATOM     23  C17 UNK     1      -5.965  37.326 234.607  1.00  0.00     0.036 A 
ATOM     24  C18 UNK     1      -6.071  36.660 233.397  1.00  0.00     0.026 A 
ATOM     25  H13 UNK     1      -2.857  34.862 232.084  1.00  0.00     0.166 HD
ENDROOT
TORSDOF 0
ENDMDL
