MODEL 1
REMARK VINA RESULT:      -5.5      0.000      0.000
REMARK  0 active torsions:
REMARK  status: ('A' for Active; 'I' for Inactive)
ROOT
ATOM      1  C1  UNK     1       0.494  39.627 238.189  1.00  0.00     0.089 C 
ATOM      2  C2  UNK     1       1.230  38.305 238.251  1.00  0.00     0.087 C 
ATOM      3  N1  UNK     1       1.190  37.559 237.209  1.00  0.00    -0.344 N 
ATOM      4  H1  UNK     1       0.668  37.946 236.422  1.00  0.00     0.167 HD
ATOM      5  C3  UNK     1       1.737  36.331 236.991  1.00  0.00     0.057 A 
ATOM      6  C4  UNK     1       1.357  35.565 235.879  1.00  0.00     0.033 A 
ATOM      7  C5  UNK     1       1.915  34.320 235.670  1.00  0.00     0.026 A 
ATOM      8  C6  UNK     1       2.847  33.815 236.563  1.00  0.00     0.035 A 
ATOM      9  C7  UNK     1       3.227  34.561 237.672  1.00  0.00     0.051 A 
ATOM     10  C8  UNK     1       2.673  35.799 237.880  1.00  0.00     0.108 A 
ATOM     11  S1  UNK     1       3.116  36.806 239.266  1.00  0.00     0.266 S 
ATOM     12  O1  UNK     1       2.971  36.003 240.420  1.00  0.00    -0.200 OA
ATOM     13  O2  UNK     1       4.320  37.465 238.900  1.00  0.00    -0.200 OA
ATOM     14  N2  UNK     1       1.915  37.976 239.401  1.00  0.00    -0.270 N 
ATOM     15 Cl1  UNK     1       3.535  32.244 236.292  1.00  0.00    -0.084 Cl
ATOM     16  H7  UNK     1       1.707  38.413 240.276  1.00  0.00     0.180 HD
ENDROOT
TORSDOF 0
ENDMDL
MODEL 2
REMARK VINA RESULT:      -5.5      2.528      3.102
REMARK  0 active torsions:
REMARK  status: ('A' for Active; 'I' for Inactive)
ROOT
ATOM      1  C1  UNK     1       4.324  38.629 239.684  1.00  0.00     0.089 C 
ATOM      2  C2  UNK     1       3.515  38.071 238.533  1.00  0.00     0.087 C 
ATOM      3  N1  UNK     1       3.497  36.797 238.389  1.00  0.00    -0.344 N 
ATOM      4  H1  UNK     1       4.029  36.277 239.086  1.00  0.00     0.167 HD
ATOM      5  C3  UNK     1       2.877  36.032 237.447  1.00  0.00     0.057 A 
ATOM      6  C4  UNK     1       3.197  34.674 237.305  1.00  0.00     0.033 A 
ATOM      7  C5  UNK     1       2.566  33.908 236.345  1.00  0.00     0.026 A 
ATOM      8  C6  UNK     1       1.618  34.480 235.510  1.00  0.00     0.035 A 
ATOM      9  C7  UNK     1       1.297  35.827 235.637  1.00  0.00     0.051 A 
ATOM     10  C8  UNK     1       1.924  36.588 236.591  1.00  0.00     0.108 A 
ATOM     11  S1  UNK     1       1.559  38.304 236.813  1.00  0.00     0.266 S 
ATOM     12  O1  UNK     1       1.673  38.916 235.544  1.00  0.00    -0.200 OA
ATOM     13  O2  UNK     1       0.390  38.353 237.619  1.00  0.00    -0.200 OA
ATOM     14  N2  UNK     1       2.827  38.942 237.715  1.00  0.00    -0.270 N 
ATOM     15 Cl1  UNK     1       0.836  33.509 234.303  1.00  0.00    -0.084 Cl
ATOM     16  H7  UNK     1       3.072  39.910 237.661  1.00  0.00     0.180 HD
ENDROOT
TORSDOF 0
ENDMDL
MODEL 3
REMARK VINA RESULT:      -5.3      2.447      2.867
REMARK  0 active torsions:
REMARK  status: ('A' for Active; 'I' for Inactive)
ROOT
ATOM      1  C1  UNK     1       3.736  39.317 238.864  1.00  0.00     0.089 C 
ATOM      2  C2  UNK     1       3.017  38.195 238.144  1.00  0.00     0.087 C 
ATOM      3  N1  UNK     1       2.784  38.352 236.894  1.00  0.00    -0.344 N 
ATOM      4  H1  UNK     1       3.125  39.228 236.498  1.00  0.00     0.167 HD
ATOM      5  C3  UNK     1       2.150  37.528 236.013  1.00  0.00     0.057 A 
ATOM      6  C4  UNK     1       1.762  37.996 234.749  1.00  0.00     0.033 A 
ATOM      7  C5  UNK     1       1.117  37.155 233.864  1.00  0.00     0.026 A 
ATOM      8  C6  UNK     1       0.841  35.845 234.224  1.00  0.00     0.035 A 
ATOM      9  C7  UNK     1       1.215  35.371 235.476  1.00  0.00     0.051 A 
ATOM     10  C8  UNK     1       1.857  36.207 236.355  1.00  0.00     0.108 A 
ATOM     11  S1  UNK     1       2.368  35.669 237.961  1.00  0.00     0.266 S 
ATOM     12  O1  UNK     1       1.239  35.083 238.576  1.00  0.00    -0.200 OA
ATOM     13  O2  UNK     1       3.609  35.003 237.772  1.00  0.00    -0.200 OA
ATOM     14  N2  UNK     1       2.668  37.064 238.851  1.00  0.00    -0.270 N 
ATOM     15 Cl1  UNK     1       0.023  34.799 233.106  1.00  0.00    -0.084 Cl
ATOM     16  H7  UNK     1       2.597  37.073 239.849  1.00  0.00     0.180 HD
ENDROOT
TORSDOF 0
ENDMDL
MODEL 4
REMARK VINA RESULT:      -5.0      3.529      3.957
REMARK  0 active torsions:
REMARK  status: ('A' for Active; 'I' for Inactive)
ROOT
ATOM      1  C1  UNK     1       3.712  38.310 240.215  1.00  0.00     0.089 C 
ATOM      2  C2  UNK     1       2.703  38.116 239.103  1.00  0.00     0.087 C 
ATOM      3  N1  UNK     1       1.832  37.189 239.253  1.00  0.00    -0.344 N 
ATOM      4  H1  UNK     1       1.899  36.672 240.130  1.00  0.00     0.167 HD
ATOM      5  C3  UNK     1       0.832  36.785 238.421  1.00  0.00     0.057 A 
ATOM      6  C4  UNK     1       0.154  35.579 238.649  1.00  0.00     0.033 A 
ATOM      7  C5  UNK     1      -0.855  35.177 237.797  1.00  0.00     0.026 A 
ATOM      8  C6  UNK     1      -1.199  35.960 236.706  1.00  0.00     0.035 A 
ATOM      9  C7  UNK     1      -0.531  37.155 236.465  1.00  0.00     0.051 A 
ATOM     10  C8  UNK     1       0.472  37.555 237.312  1.00  0.00     0.108 A 
ATOM     11  S1  UNK     1       1.359  39.066 237.071  1.00  0.00     0.266 S 
ATOM     12  O1  UNK     1       1.816  39.065 235.734  1.00  0.00    -0.200 OA
ATOM     13  O2  UNK     1       0.549  40.087 237.636  1.00  0.00    -0.200 OA
ATOM     14  N2  UNK     1       2.754  38.947 238.004  1.00  0.00    -0.270 N 
ATOM     15 Cl1  UNK     1      -2.466  35.441 235.639  1.00  0.00    -0.084 Cl
ATOM     16  H7  UNK     1       3.583  39.457 237.772  1.00  0.00     0.180 HD
ENDROOT
TORSDOF 0
ENDMDL
MODEL 5
REMARK VINA RESULT:      -5.0      2.684      3.222
REMARK  0 active torsions:
REMARK  status: ('A' for Active; 'I' for Inactive)
ROOT
ATOM      1  C1  UNK     1       0.223  39.806 238.471  1.00  0.00     0.089 C 
ATOM      2  C2  UNK     1       0.640  38.625 237.620  1.00  0.00     0.087 C 
ATOM      3  N1  UNK     1       1.294  37.686 238.195  1.00  0.00    -0.344 N 
ATOM      4  H1  UNK     1       1.460  37.824 239.193  1.00  0.00     0.167 HD
ATOM      5  C3  UNK     1       1.803  36.532 237.681  1.00  0.00     0.057 A 
ATOM      6  C4  UNK     1       2.716  35.762 238.416  1.00  0.00     0.033 A 
ATOM      7  C5  UNK     1       3.229  34.596 237.884  1.00  0.00     0.026 A 
ATOM      8  C6  UNK     1       2.851  34.184 236.615  1.00  0.00     0.035 A 
ATOM      9  C7  UNK     1       1.952  34.941 235.874  1.00  0.00     0.051 A 
ATOM     10  C8  UNK     1       1.441  36.100 236.403  1.00  0.00     0.108 A 
ATOM     11  S1  UNK     1       0.287  37.108 235.520  1.00  0.00     0.266 S 
ATOM     12  O1  UNK     1       0.849  37.355 234.246  1.00  0.00    -0.200 OA
ATOM     13  O2  UNK     1      -0.987  36.515 235.727  1.00  0.00    -0.200 OA
ATOM     14  N2  UNK     1       0.285  38.605 236.288  1.00  0.00    -0.270 N 
ATOM     15 Cl1  UNK     1       3.508  32.720 235.954  1.00  0.00    -0.084 Cl
ATOM     16  H7  UNK     1       0.037  39.442 235.800  1.00  0.00     0.180 HD
ENDROOT
TORSDOF 0
ENDMDL
MODEL 6
REMARK VINA RESULT:      -5.0      3.739      4.742
REMARK  0 active torsions:
REMARK  status: ('A' for Active; 'I' for Inactive)
ROOT
ATOM      1  C1  UNK     1       0.501  33.989 234.120  1.00  0.00     0.089 C 
ATOM      2  C2  UNK     1       0.882  35.216 234.923  1.00  0.00     0.087 C 
ATOM      3  N1  UNK     1       1.794  35.078 235.812  1.00  0.00    -0.344 N 
ATOM      4  H1  UNK     1       2.190  34.141 235.881  1.00  0.00     0.167 HD
ATOM      5  C3  UNK     1       2.316  35.991 236.678  1.00  0.00     0.057 A 
ATOM      6  C4  UNK     1       3.118  35.580 237.753  1.00  0.00     0.033 A 
ATOM      7  C5  UNK     1       3.639  36.512 238.628  1.00  0.00     0.026 A 
ATOM      8  C6  UNK     1       3.365  37.860 238.454  1.00  0.00     0.035 A 
ATOM      9  C7  UNK     1       2.566  38.279 237.396  1.00  0.00     0.051 A 
ATOM     10  C8  UNK     1       2.048  37.353 236.526  1.00  0.00     0.108 A 
ATOM     11  S1  UNK     1       1.031  37.816 235.155  1.00  0.00     0.266 S 
ATOM     12  O1  UNK     1       0.001  38.637 235.667  1.00  0.00    -0.200 OA
ATOM     13  O2  UNK     1       1.924  38.208 234.123  1.00  0.00    -0.200 OA
ATOM     14  N2  UNK     1       0.253  36.412 234.652  1.00  0.00    -0.270 N 
ATOM     15 Cl1  UNK     1       4.019  39.022 239.564  1.00  0.00    -0.084 Cl
ATOM     16  H7  UNK     1      -0.627  36.444 234.177  1.00  0.00     0.180 HD
ENDROOT
TORSDOF 0
ENDMDL
MODEL 7
REMARK VINA RESULT:      -4.9      3.258      4.214
REMARK  0 active torsions:
REMARK  status: ('A' for Active; 'I' for Inactive)
ROOT
ATOM      1  C1  UNK     1       0.186  37.664 233.787  1.00  0.00     0.089 C 
ATOM      2  C2  UNK     1       1.022  37.241 234.977  1.00  0.00     0.087 C 
ATOM      3  N1  UNK     1       1.363  38.153 235.811  1.00  0.00    -0.344 N 
ATOM      4  H1  UNK     1       1.019  39.088 235.592  1.00  0.00     0.167 HD
ATOM      5  C3  UNK     1       2.115  38.065 236.943  1.00  0.00     0.057 A 
ATOM      6  C4  UNK     1       2.596  39.222 237.573  1.00  0.00     0.033 A 
ATOM      7  C5  UNK     1       3.361  39.123 238.718  1.00  0.00     0.026 A 
ATOM      8  C6  UNK     1       3.664  37.878 239.247  1.00  0.00     0.035 A 
ATOM      9  C7  UNK     1       3.198  36.724 238.629  1.00  0.00     0.051 A 
ATOM     10  C8  UNK     1       2.438  36.822 237.491  1.00  0.00     0.108 A 
ATOM     11  S1  UNK     1       1.805  35.397 236.656  1.00  0.00     0.266 S 
ATOM     12  O1  UNK     1       2.899  34.528 236.442  1.00  0.00    -0.200 OA
ATOM     13  O2  UNK     1       0.621  35.032 237.351  1.00  0.00    -0.200 OA
ATOM     14  N2  UNK     1       1.357  35.912 235.119  1.00  0.00    -0.270 N 
ATOM     15 Cl1  UNK     1       4.632  37.765 240.684  1.00  0.00    -0.084 Cl
ATOM     16  H7  UNK     1       1.334  35.282 234.343  1.00  0.00     0.180 HD
ENDROOT
TORSDOF 0
ENDMDL
MODEL 8
REMARK VINA RESULT:      -4.9      3.527      4.149
REMARK  0 active torsions:
REMARK  status: ('A' for Active; 'I' for Inactive)
ROOT
ATOM      1  C1  UNK     1      -1.635  36.179 235.702  1.00  0.00     0.089 C 
ATOM      2  C2  UNK     1      -0.549  36.879 236.492  1.00  0.00     0.087 C 
ATOM      3  N1  UNK     1       0.131  36.169 237.314  1.00  0.00    -0.344 N 
ATOM      4  H1  UNK     1      -0.123  35.182 237.344  1.00  0.00     0.167 HD
ATOM      5  C3  UNK     1       1.141  36.531 238.154  1.00  0.00     0.057 A 
ATOM      6  C4  UNK     1       1.576  35.661 239.165  1.00  0.00     0.033 A 
ATOM      7  C5  UNK     1       2.597  36.039 240.014  1.00  0.00     0.026 A 
ATOM      8  C6  UNK     1       3.193  37.283 239.877  1.00  0.00     0.035 A 
ATOM      9  C7  UNK     1       2.766  38.156 238.883  1.00  0.00     0.051 A 
ATOM     10  C8  UNK     1       1.751  37.781 238.039  1.00  0.00     0.108 A 
ATOM     11  S1  UNK     1       1.164  38.837 236.748  1.00  0.00     0.266 S 
ATOM     12  O1  UNK     1       0.873  40.087 237.340  1.00  0.00    -0.200 OA
ATOM     13  O2  UNK     1       2.061  38.660 235.660  1.00  0.00    -0.200 OA
ATOM     14  N2  UNK     1      -0.331  38.223 236.281  1.00  0.00    -0.270 N 
ATOM     15 Cl1  UNK     1       4.471  37.749 240.954  1.00  0.00    -0.084 Cl
ATOM     16  H7  UNK     1      -1.030  38.808 235.868  1.00  0.00     0.180 HD
ENDROOT
TORSDOF 0
ENDMDL
MODEL 9
REMARK VINA RESULT:      -4.9      5.344      6.409
REMARK  0 active torsions:
REMARK  status: ('A' for Active; 'I' for Inactive)
ROOT
ATOM      1  C1  UNK     1       0.837  36.281 230.618  1.00  0.00     0.089 C 
ATOM      2  C2  UNK     1       0.351  36.806 231.953  1.00  0.00     0.087 C 
ATOM      3  N1  UNK     1       1.240  37.165 232.803  1.00  0.00    -0.344 N 
ATOM      4  H1  UNK     1       2.205  37.072 232.484  1.00  0.00     0.167 HD
ATOM      5  C3  UNK     1       1.095  37.650 234.068  1.00  0.00     0.057 A 
ATOM      6  C4  UNK     1       2.196  37.734 234.933  1.00  0.00     0.033 A 
ATOM      7  C5  UNK     1       2.038  38.223 236.214  1.00  0.00     0.026 A 
ATOM      8  C6  UNK     1       0.787  38.627 236.656  1.00  0.00     0.035 A 
ATOM      9  C7  UNK     1      -0.313  38.544 235.810  1.00  0.00     0.051 A 
ATOM     10  C8  UNK     1      -0.155  38.058 234.537  1.00  0.00     0.108 A 
ATOM     11  S1  UNK     1      -1.509  37.931 233.405  1.00  0.00     0.266 S 
ATOM     12  O1  UNK     1      -2.539  37.231 234.074  1.00  0.00    -0.200 OA
ATOM     13  O2  UNK     1      -1.663  39.223 232.835  1.00  0.00    -0.200 OA
ATOM     14  N2  UNK     1      -1.005  36.891 232.183  1.00  0.00    -0.270 N 
ATOM     15 Cl1  UNK     1       0.600  39.235 238.271  1.00  0.00    -0.084 Cl
ATOM     16  H7  UNK     1      -1.660  36.358 231.647  1.00  0.00     0.180 HD
ENDROOT
TORSDOF 0
ENDMDL
