MODEL 1
REMARK VINA RESULT:      -6.0      0.000      0.000
REMARK  10 active torsions:
REMARK  status: ('A' for Active; 'I' for Inactive)
REMARK    1  A    between atoms: S1_1  and  N2_8 
REMARK    2  A    between atoms: S1_1  and  C5_13 
REMARK    3  A    between atoms: O1_2  and  C4_12 
REMARK    4  A    between atoms: O1_2  and  C11_19 
REMARK    5  A    between atoms: O4_5  and  C12_20 
REMARK    6  A    between atoms: N1_7  and  C1_9 
REMARK    7  A    between atoms: N1_7  and  C3_11 
REMARK    8  A    between atoms: C1_9  and  C2_10 
REMARK    9  A    between atoms: C2_10  and  C6_14 
REMARK   10  A    between atoms: C8_16  and  C12_20 
ROOT
ATOM      1  C3  UNK     1       1.073  34.544 236.597  1.00  0.00     0.065 A 
ATOM      2  C4  UNK     1       1.459  34.866 237.913  1.00  0.00     0.125 A 
ATOM      3  C5  UNK     1       2.479  34.163 238.553  1.00  0.00     0.116 A 
ATOM      4  C7  UNK     1       1.747  33.493 235.946  1.00  0.00     0.050 A 
ATOM      5  C8  UNK     1       2.768  32.791 236.586  1.00  0.00     0.041 A 
ATOM      6  C9  UNK     1       3.134  33.126 237.890  1.00  0.00     0.046 A 
ENDROOT
BRANCH   2   7
ATOM      7  O1  UNK     1       0.817  35.881 238.560  1.00  0.00    -0.307 OA
BRANCH   7   8
ATOM      8  C11 UNK     1       1.063  37.172 238.129  1.00  0.00     0.076 A 
ATOM      9  C13 UNK     1       0.026  38.089 238.115  1.00  0.00     0.037 A 
ATOM     10  C15 UNK     1       0.275  39.391 237.680  1.00  0.00     0.003 A 
ATOM     11  C17 UNK     1       1.555  39.755 237.265  1.00  0.00     0.000 A 
ATOM     12  C16 UNK     1       2.588  38.817 237.285  1.00  0.00     0.003 A 
ATOM     13  C14 UNK     1       2.340  37.515 237.721  1.00  0.00     0.037 A 
ENDBRANCH   7   8
ENDBRANCH   2   7
BRANCH   1  14
ATOM     14  N1  UNK     1       0.060  35.233 235.948  1.00  0.00    -0.388 N 
ATOM     15  H5  UNK     1      -0.782  35.441 236.470  1.00  0.00     0.159 HD
BRANCH  14  16
ATOM     16  C1  UNK     1       0.111  35.608 234.555  1.00  0.00     0.120 C 
BRANCH  16  17
ATOM     17  C2  UNK     1       1.042  36.801 234.350  1.00  0.00     0.019 C 
BRANCH  17  18
ATOM     18  C6  UNK     1       1.171  37.202 232.878  1.00  0.00    -0.003 C 
ATOM     19  C10 UNK     1       0.662  36.104 231.957  1.00  0.00     0.005 C 
ENDBRANCH  17  18
ENDBRANCH  16  17
ENDBRANCH  14  16
ENDBRANCH   1  14
BRANCH   3  20
ATOM     20  S1  UNK     1       2.960  34.564 240.187  1.00  0.00     0.259 S 
ATOM     21  O2  UNK     1       3.754  33.465 240.712  1.00  0.00    -0.201 OA
ATOM     22  O3  UNK     1       3.499  35.916 240.188  1.00  0.00    -0.201 OA
BRANCH  20  23
ATOM     23  N2  UNK     1       1.443  34.576 240.973  1.00  0.00    -0.324 N 
ATOM     24  H13 UNK     1       1.344  34.015 241.828  1.00  0.00     0.169 HD
ATOM     25  H14 UNK     1       0.601  34.589 240.384  1.00  0.00     0.169 HD
ENDBRANCH  20  23
ENDBRANCH   3  20
BRANCH   5  26
ATOM     26  C12 UNK     1       3.449  31.708 235.894  1.00  0.00     0.176 C 
ATOM     27  O5  UNK     1       4.028  30.762 236.439  1.00  0.00    -0.646 OA
BRANCH  26  28
ATOM     28  O4  UNK     1       3.389  31.835 234.540  1.00  0.00    -0.773 OA
ATOM     29  H20 UNK     1       4.206  31.510 234.106  1.00  0.00     0.167 HD
ENDBRANCH  26  28
ENDBRANCH   5  26
TORSDOF 10
ENDMDL
MODEL 2
REMARK VINA RESULT:      -5.8      9.281     12.250
REMARK  10 active torsions:
REMARK  status: ('A' for Active; 'I' for Inactive)
REMARK    1  A    between atoms: S1_1  and  N2_8 
REMARK    2  A    between atoms: S1_1  and  C5_13 
REMARK    3  A    between atoms: O1_2  and  C4_12 
REMARK    4  A    between atoms: O1_2  and  C11_19 
REMARK    5  A    between atoms: O4_5  and  C12_20 
REMARK    6  A    between atoms: N1_7  and  C1_9 
REMARK    7  A    between atoms: N1_7  and  C3_11 
REMARK    8  A    between atoms: C1_9  and  C2_10 
REMARK    9  A    between atoms: C2_10  and  C6_14 
REMARK   10  A    between atoms: C8_16  and  C12_20 
ROOT
ATOM      1  C3  UNK     1      -3.270  41.436 228.357  1.00  0.00     0.065 A 
ATOM      2  C4  UNK     1      -2.018  41.839 228.861  1.00  0.00     0.125 A 
ATOM      3  C5  UNK     1      -1.131  42.573 228.074  1.00  0.00     0.116 A 
ATOM      4  C7  UNK     1      -3.600  41.795 227.036  1.00  0.00     0.050 A 
ATOM      5  C8  UNK     1      -2.713  42.530 226.250  1.00  0.00     0.041 A 
ATOM      6  C9  UNK     1      -1.478  42.918 226.769  1.00  0.00     0.046 A 
ENDROOT
BRANCH   2   7
ATOM      7  O1  UNK     1      -1.680  41.499 230.138  1.00  0.00    -0.307 OA
BRANCH   7   8
ATOM      8  C11 UNK     1      -1.415  40.166 230.398  1.00  0.00     0.076 A 
ATOM      9  C13 UNK     1      -0.725  39.419 229.458  1.00  0.00     0.037 A 
ATOM     10  C15 UNK     1      -0.460  38.075 229.719  1.00  0.00     0.003 A 
ATOM     11  C17 UNK     1      -0.888  37.499 230.915  1.00  0.00     0.000 A 
ATOM     12  C16 UNK     1      -1.583  38.266 231.849  1.00  0.00     0.003 A 
ATOM     13  C14 UNK     1      -1.848  39.611 231.589  1.00  0.00     0.037 A 
ENDBRANCH   7   8
ENDBRANCH   2   7
BRANCH   1  14
ATOM     14  N1  UNK     1      -4.162  40.705 229.126  1.00  0.00    -0.388 N 
ATOM     15  H5  UNK     1      -4.243  40.939 230.108  1.00  0.00     0.159 HD
BRANCH  14  16
ATOM     16  C1  UNK     1      -4.928  39.591 228.623  1.00  0.00     0.120 C 
BRANCH  16  17
ATOM     17  C2  UNK     1      -4.315  38.266 229.072  1.00  0.00     0.019 C 
BRANCH  17  18
ATOM     18  C6  UNK     1      -3.706  37.475 227.912  1.00  0.00    -0.003 C 
ATOM     19  C10 UNK     1      -4.280  37.919 226.576  1.00  0.00     0.005 C 
ENDBRANCH  17  18
ENDBRANCH  16  17
ENDBRANCH  14  16
ENDBRANCH   1  14
BRANCH   3  20
ATOM     20  S1  UNK     1       0.424  43.075 228.701  1.00  0.00     0.259 S 
ATOM     21  O2  UNK     1       0.214  43.693 230.001  1.00  0.00    -0.201 OA
ATOM     22  O3  UNK     1       1.353  41.962 228.568  1.00  0.00    -0.201 OA
BRANCH  20  23
ATOM     23  N2  UNK     1       0.850  44.285 227.573  1.00  0.00    -0.324 N 
ATOM     24  H13 UNK     1       1.696  44.836 227.762  1.00  0.00     0.169 HD
ATOM     25  H14 UNK     1       0.088  44.825 227.144  1.00  0.00     0.169 HD
ENDBRANCH  20  23
ENDBRANCH   3  20
BRANCH   5  26
ATOM     26  C12 UNK     1      -3.076  42.889 224.888  1.00  0.00     0.176 C 
ATOM     27  O5  UNK     1      -2.411  42.631 223.878  1.00  0.00    -0.646 OA
BRANCH  26  28
ATOM     28  O4  UNK     1      -4.258  43.560 224.822  1.00  0.00    -0.773 OA
ATOM     29  H20 UNK     1      -4.693  43.450 223.951  1.00  0.00     0.167 HD
ENDBRANCH  26  28
ENDBRANCH   5  26
TORSDOF 10
ENDMDL
MODEL 3
REMARK VINA RESULT:      -5.7      2.806      4.774
REMARK  10 active torsions:
REMARK  status: ('A' for Active; 'I' for Inactive)
REMARK    1  A    between atoms: S1_1  and  N2_8 
REMARK    2  A    between atoms: S1_1  and  C5_13 
REMARK    3  A    between atoms: O1_2  and  C4_12 
REMARK    4  A    between atoms: O1_2  and  C11_19 
REMARK    5  A    between atoms: O4_5  and  C12_20 
REMARK    6  A    between atoms: N1_7  and  C1_9 
REMARK    7  A    between atoms: N1_7  and  C3_11 
REMARK    8  A    between atoms: C1_9  and  C2_10 
REMARK    9  A    between atoms: C2_10  and  C6_14 
REMARK   10  A    between atoms: C8_16  and  C12_20 
ROOT
ATOM      1  C3  UNK     1       1.047  34.438 236.817  1.00  0.00     0.065 A 
ATOM      2  C4  UNK     1       0.093  35.096 236.016  1.00  0.00     0.125 A 
ATOM      3  C5  UNK     1      -0.131  34.699 234.698  1.00  0.00     0.116 A 
ATOM      4  C7  UNK     1       1.767  33.370 236.250  1.00  0.00     0.050 A 
ATOM      5  C8  UNK     1       1.543  32.973 234.932  1.00  0.00     0.041 A 
ATOM      6  C9  UNK     1       0.594  33.639 234.156  1.00  0.00     0.046 A 
ENDROOT
BRANCH   2   7
ATOM      7  O1  UNK     1      -0.614  36.134 236.548  1.00  0.00    -0.307 OA
BRANCH   7   8
ATOM      8  C11 UNK     1       0.074  37.302 236.825  1.00  0.00     0.076 A 
ATOM      9  C13 UNK     1       1.097  37.699 235.982  1.00  0.00     0.037 A 
ATOM     10  C15 UNK     1       1.791  38.876 236.262  1.00  0.00     0.003 A 
ATOM     11  C17 UNK     1       1.453  39.636 237.381  1.00  0.00     0.000 A 
ATOM     12  C16 UNK     1       0.420  39.220 238.221  1.00  0.00     0.003 A 
ATOM     13  C14 UNK     1      -0.276  38.043 237.940  1.00  0.00     0.037 A 
ENDBRANCH   7   8
ENDBRANCH   2   7
BRANCH   1  14
ATOM     14  N1  UNK     1       1.281  34.821 238.129  1.00  0.00    -0.388 N 
ATOM     15  H5  UNK     1       0.493  35.141 238.678  1.00  0.00     0.159 HD
BRANCH  14  16
ATOM     16  C1  UNK     1       2.592  34.852 238.732  1.00  0.00     0.120 C 
BRANCH  16  17
ATOM     17  C2  UNK     1       3.260  36.206 238.503  1.00  0.00     0.019 C 
BRANCH  17  18
ATOM     18  C6  UNK     1       3.130  37.140 239.709  1.00  0.00    -0.003 C 
ATOM     19  C10 UNK     1       4.115  38.296 239.625  1.00  0.00     0.005 C 
ENDBRANCH  17  18
ENDBRANCH  16  17
ENDBRANCH  14  16
ENDBRANCH   1  14
BRANCH   3  20
ATOM     20  S1  UNK     1      -1.317  35.515 233.703  1.00  0.00     0.259 S 
ATOM     21  O2  UNK     1      -0.874  36.886 233.497  1.00  0.00    -0.201 OA
ATOM     22  O3  UNK     1      -1.614  34.668 232.557  1.00  0.00    -0.201 OA
BRANCH  20  23
ATOM     23  N2  UNK     1      -2.667  35.519 234.749  1.00  0.00    -0.324 N 
ATOM     24  H13 UNK     1      -3.486  34.965 234.473  1.00  0.00     0.169 HD
ATOM     25  H14 UNK     1      -2.901  36.401 235.221  1.00  0.00     0.169 HD
ENDBRANCH  20  23
ENDBRANCH   3  20
BRANCH   5  26
ATOM     26  C12 UNK     1       2.300  31.867 234.367  1.00  0.00     0.176 C 
ATOM     27  O5  UNK     1       1.875  31.063 233.530  1.00  0.00    -0.646 OA
BRANCH  26  28
ATOM     28  O4  UNK     1       3.566  31.796 234.861  1.00  0.00    -0.773 OA
ATOM     29  H20 UNK     1       4.239  31.943 234.163  1.00  0.00     0.167 HD
ENDBRANCH  26  28
ENDBRANCH   5  26
TORSDOF 10
ENDMDL
MODEL 4
REMARK VINA RESULT:      -5.7      2.274      5.113
REMARK  10 active torsions:
REMARK  status: ('A' for Active; 'I' for Inactive)
REMARK    1  A    between atoms: S1_1  and  N2_8 
REMARK    2  A    between atoms: S1_1  and  C5_13 
REMARK    3  A    between atoms: O1_2  and  C4_12 
REMARK    4  A    between atoms: O1_2  and  C11_19 
REMARK    5  A    between atoms: O4_5  and  C12_20 
REMARK    6  A    between atoms: N1_7  and  C1_9 
REMARK    7  A    between atoms: N1_7  and  C3_11 
REMARK    8  A    between atoms: C1_9  and  C2_10 
REMARK    9  A    between atoms: C2_10  and  C6_14 
REMARK   10  A    between atoms: C8_16  and  C12_20 
ROOT
ATOM      1  C3  UNK     1       2.486  36.668 237.171  1.00  0.00     0.065 A 
ATOM      2  C4  UNK     1       1.724  35.659 237.791  1.00  0.00     0.125 A 
ATOM      3  C5  UNK     1       1.842  35.408 239.158  1.00  0.00     0.116 A 
ATOM      4  C7  UNK     1       3.372  37.416 237.971  1.00  0.00     0.050 A 
ATOM      5  C8  UNK     1       3.490  37.165 239.338  1.00  0.00     0.041 A 
ATOM      6  C9  UNK     1       2.725  36.160 239.931  1.00  0.00     0.046 A 
ENDROOT
BRANCH   2   7
ATOM      7  O1  UNK     1       0.861  34.923 237.032  1.00  0.00    -0.307 OA
BRANCH   7   8
ATOM      8  C11 UNK     1       1.399  33.930 236.232  1.00  0.00     0.076 A 
ATOM      9  C13 UNK     1       0.656  33.441 235.172  1.00  0.00     0.037 A 
ATOM     10  C15 UNK     1       1.198  32.439 234.366  1.00  0.00     0.003 A 
ATOM     11  C17 UNK     1       2.473  31.943 234.634  1.00  0.00     0.000 A 
ATOM     12  C16 UNK     1       3.207  32.447 235.708  1.00  0.00     0.003 A 
ATOM     13  C14 UNK     1       2.666  33.450 236.513  1.00  0.00     0.037 A 
ENDBRANCH   7   8
ENDBRANCH   2   7
BRANCH   1  14
ATOM     14  N1  UNK     1       2.381  36.929 235.814  1.00  0.00    -0.388 N 
ATOM     15  H5  UNK     1       2.808  36.275 235.171  1.00  0.00     0.159 HD
BRANCH  14  16
ATOM     16  C1  UNK     1       1.759  38.113 235.272  1.00  0.00     0.120 C 
BRANCH  16  17
ATOM     17  C2  UNK     1       0.589  38.559 236.147  1.00  0.00     0.019 C 
BRANCH  17  18
ATOM     18  C6  UNK     1       0.930  39.771 237.016  1.00  0.00    -0.003 C 
ATOM     19  C10 UNK     1       0.332  39.643 238.408  1.00  0.00     0.005 C 
ENDBRANCH  17  18
ENDBRANCH  16  17
ENDBRANCH  14  16
ENDBRANCH   1  14
BRANCH   3  20
ATOM     20  S1  UNK     1       0.893  34.155 239.927  1.00  0.00     0.259 S 
ATOM     21  O2  UNK     1       1.319  32.869 239.397  1.00  0.00    -0.201 OA
ATOM     22  O3  UNK     1       0.906  34.388 241.364  1.00  0.00    -0.201 OA
BRANCH  20  23
ATOM     23  N2  UNK     1      -0.664  34.516 239.325  1.00  0.00    -0.324 N 
ATOM     24  H13 UNK     1      -1.338  34.943 239.972  1.00  0.00     0.169 HD
ATOM     25  H14 UNK     1      -1.085  33.851 238.664  1.00  0.00     0.169 HD
ENDBRANCH  20  23
ENDBRANCH   3  20
BRANCH   5  26
ATOM     26  C12 UNK     1       4.412  37.950 240.144  1.00  0.00     0.176 C 
ATOM     27  O5  UNK     1       5.095  37.515 241.078  1.00  0.00    -0.646 OA
BRANCH  26  28
ATOM     28  O4  UNK     1       4.456  39.256 239.763  1.00  0.00    -0.773 OA
ATOM     29  H20 UNK     1       4.074  39.848 240.444  1.00  0.00     0.167 HD
ENDBRANCH  26  28
ENDBRANCH   5  26
TORSDOF 10
ENDMDL
MODEL 5
REMARK VINA RESULT:      -5.6      2.231      4.858
REMARK  10 active torsions:
REMARK  status: ('A' for Active; 'I' for Inactive)
REMARK    1  A    between atoms: S1_1  and  N2_8 
REMARK    2  A    between atoms: S1_1  and  C5_13 
REMARK    3  A    between atoms: O1_2  and  C4_12 
REMARK    4  A    between atoms: O1_2  and  C11_19 
REMARK    5  A    between atoms: O4_5  and  C12_20 
REMARK    6  A    between atoms: N1_7  and  C1_9 
REMARK    7  A    between atoms: N1_7  and  C3_11 
REMARK    8  A    between atoms: C1_9  and  C2_10 
REMARK    9  A    between atoms: C2_10  and  C6_14 
REMARK   10  A    between atoms: C8_16  and  C12_20 
ROOT
ATOM      1  C3  UNK     1       2.509  36.713 236.907  1.00  0.00     0.065 A 
ATOM      2  C4  UNK     1       1.665  35.728 237.457  1.00  0.00     0.125 A 
ATOM      3  C5  UNK     1       1.655  35.477 238.828  1.00  0.00     0.116 A 
ATOM      4  C7  UNK     1       3.342  37.436 237.782  1.00  0.00     0.050 A 
ATOM      5  C8  UNK     1       3.332  37.186 239.154  1.00  0.00     0.041 A 
ATOM      6  C9  UNK     1       2.488  36.205 239.677  1.00  0.00     0.046 A 
ENDROOT
BRANCH   2   7
ATOM      7  O1  UNK     1       0.852  35.016 236.624  1.00  0.00    -0.307 OA
BRANCH   7   8
ATOM      8  C11 UNK     1       1.414  33.961 235.928  1.00  0.00     0.076 A 
ATOM      9  C13 UNK     1       0.745  33.441 234.834  1.00  0.00     0.037 A 
ATOM     10  C15 UNK     1       1.312  32.376 234.133  1.00  0.00     0.003 A 
ATOM     11  C17 UNK     1       2.537  31.848 234.538  1.00  0.00     0.000 A 
ATOM     12  C16 UNK     1       3.196  32.384 235.644  1.00  0.00     0.003 A 
ATOM     13  C14 UNK     1       2.631  33.449 236.345  1.00  0.00     0.037 A 
ENDBRANCH   7   8
ENDBRANCH   2   7
BRANCH   1  14
ATOM     14  N1  UNK     1       2.531  36.974 235.546  1.00  0.00    -0.388 N 
ATOM     15  H5  UNK     1       3.205  36.474 234.978  1.00  0.00     0.159 HD
BRANCH  14  16
ATOM     16  C1  UNK     1       1.700  37.965 234.906  1.00  0.00     0.120 C 
BRANCH  16  17
ATOM     17  C2  UNK     1       0.656  37.299 234.012  1.00  0.00     0.019 C 
BRANCH  17  18
ATOM     18  C6  UNK     1       1.172  37.042 232.594  1.00  0.00    -0.003 C 
ATOM     19  C10 UNK     1       0.518  35.815 231.979  1.00  0.00     0.005 C 
ENDBRANCH  17  18
ENDBRANCH  16  17
ENDBRANCH  14  16
ENDBRANCH   1  14
BRANCH   3  20
ATOM     20  S1  UNK     1       0.606  34.254 239.511  1.00  0.00     0.259 S 
ATOM     21  O2  UNK     1      -0.757  34.533 239.086  1.00  0.00    -0.201 OA
ATOM     22  O3  UNK     1       1.195  32.948 239.253  1.00  0.00    -0.201 OA
BRANCH  20  23
ATOM     23  N2  UNK     1       0.749  34.603 241.177  1.00  0.00    -0.324 N 
ATOM     24  H13 UNK     1       0.152  34.077 241.827  1.00  0.00     0.169 HD
ATOM     25  H14 UNK     1       0.896  35.583 241.448  1.00  0.00     0.169 HD
ENDBRANCH  20  23
ENDBRANCH   3  20
BRANCH   5  26
ATOM     26  C12 UNK     1       4.201  37.945 240.039  1.00  0.00     0.176 C 
ATOM     27  O5  UNK     1       4.765  37.499 241.044  1.00  0.00    -0.646 OA
BRANCH  26  28
ATOM     28  O4  UNK     1       4.344  39.240 239.644  1.00  0.00    -0.773 OA
ATOM     29  H20 UNK     1       4.430  39.318 238.671  1.00  0.00     0.167 HD
ENDBRANCH  26  28
ENDBRANCH   5  26
TORSDOF 10
ENDMDL
MODEL 6
REMARK VINA RESULT:      -5.5      3.197      4.928
REMARK  10 active torsions:
REMARK  status: ('A' for Active; 'I' for Inactive)
REMARK    1  A    between atoms: S1_1  and  N2_8 
REMARK    2  A    between atoms: S1_1  and  C5_13 
REMARK    3  A    between atoms: O1_2  and  C4_12 
REMARK    4  A    between atoms: O1_2  and  C11_19 
REMARK    5  A    between atoms: O4_5  and  C12_20 
REMARK    6  A    between atoms: N1_7  and  C1_9 
REMARK    7  A    between atoms: N1_7  and  C3_11 
REMARK    8  A    between atoms: C1_9  and  C2_10 
REMARK    9  A    between atoms: C2_10  and  C6_14 
REMARK   10  A    between atoms: C8_16  and  C12_20 
ROOT
ATOM      1  C3  UNK     1      -1.177  36.210 236.538  1.00  0.00     0.065 A 
ATOM      2  C4  UNK     1      -0.366  37.360 236.482  1.00  0.00     0.125 A 
ATOM      3  C5  UNK     1       0.643  37.572 237.422  1.00  0.00     0.116 A 
ATOM      4  C7  UNK     1      -0.942  35.282 237.570  1.00  0.00     0.050 A 
ATOM      5  C8  UNK     1       0.066  35.494 238.510  1.00  0.00     0.041 A 
ATOM      6  C9  UNK     1       0.858  36.640 238.436  1.00  0.00     0.046 A 
ENDROOT
BRANCH   2   7
ATOM      7  O1  UNK     1      -0.579  38.271 235.490  1.00  0.00    -0.307 OA
BRANCH   7   8
ATOM      8  C11 UNK     1      -0.296  37.883 234.192  1.00  0.00     0.076 A 
ATOM      9  C13 UNK     1       0.878  37.198 233.934  1.00  0.00     0.037 A 
ATOM     10  C15 UNK     1       1.164  36.808 232.625  1.00  0.00     0.003 A 
ATOM     11  C17 UNK     1       0.272  37.110 231.596  1.00  0.00     0.000 A 
ATOM     12  C16 UNK     1      -0.906  37.802 231.876  1.00  0.00     0.003 A 
ATOM     13  C14 UNK     1      -1.193  38.192 233.184  1.00  0.00     0.037 A 
ENDBRANCH   7   8
ENDBRANCH   2   7
BRANCH   1  14
ATOM     14  N1  UNK     1      -2.183  35.984 235.612  1.00  0.00    -0.388 N 
ATOM     15  H5  UNK     1      -2.787  36.760 235.370  1.00  0.00     0.159 HD
BRANCH  14  16
ATOM     16  C1  UNK     1      -2.460  34.694 235.028  1.00  0.00     0.120 C 
BRANCH  16  17
ATOM     17  C2  UNK     1      -1.855  34.593 233.629  1.00  0.00     0.019 C 
BRANCH  17  18
ATOM     18  C6  UNK     1      -0.881  33.421 233.492  1.00  0.00    -0.003 C 
ATOM     19  C10 UNK     1       0.351  33.618 234.362  1.00  0.00     0.005 C 
ENDBRANCH  17  18
ENDBRANCH  16  17
ENDBRANCH  14  16
ENDBRANCH   1  14
BRANCH   3  20
ATOM     20  S1  UNK     1       1.651  39.001 237.351  1.00  0.00     0.259 S 
ATOM     21  O2  UNK     1       2.324  39.148 238.632  1.00  0.00    -0.201 OA
ATOM     22  O3  UNK     1       2.431  38.951 236.123  1.00  0.00    -0.201 OA
BRANCH  20  23
ATOM     23  N2  UNK     1       0.467  40.223 237.202  1.00  0.00    -0.324 N 
ATOM     24  H13 UNK     1       0.778  41.153 236.895  1.00  0.00     0.169 HD
ATOM     25  H14 UNK     1      -0.285  40.246 237.901  1.00  0.00     0.169 HD
ENDBRANCH  20  23
ENDBRANCH   3  20
BRANCH   5  26
ATOM     26  C12 UNK     1       0.291  34.522 239.568  1.00  0.00     0.176 C 
ATOM     27  O5  UNK     1       0.192  33.296 239.447  1.00  0.00    -0.646 OA
BRANCH  26  28
ATOM     28  O4  UNK     1       0.633  35.106 240.749  1.00  0.00    -0.773 OA
ATOM     29  H20 UNK     1       1.575  35.378 240.763  1.00  0.00     0.167 HD
ENDBRANCH  26  28
ENDBRANCH   5  26
TORSDOF 10
ENDMDL
MODEL 7
REMARK VINA RESULT:      -5.4      2.346      4.797
REMARK  10 active torsions:
REMARK  status: ('A' for Active; 'I' for Inactive)
REMARK    1  A    between atoms: S1_1  and  N2_8 
REMARK    2  A    between atoms: S1_1  and  C5_13 
REMARK    3  A    between atoms: O1_2  and  C4_12 
REMARK    4  A    between atoms: O1_2  and  C11_19 
REMARK    5  A    between atoms: O4_5  and  C12_20 
REMARK    6  A    between atoms: N1_7  and  C1_9 
REMARK    7  A    between atoms: N1_7  and  C3_11 
REMARK    8  A    between atoms: C1_9  and  C2_10 
REMARK    9  A    between atoms: C2_10  and  C6_14 
REMARK   10  A    between atoms: C8_16  and  C12_20 
ROOT
ATOM      1  C3  UNK     1       2.406  36.427 236.581  1.00  0.00     0.065 A 
ATOM      2  C4  UNK     1       1.066  36.152 236.248  1.00  0.00     0.125 A 
ATOM      3  C5  UNK     1       0.538  34.870 236.401  1.00  0.00     0.116 A 
ATOM      4  C7  UNK     1       3.198  35.372 237.072  1.00  0.00     0.050 A 
ATOM      5  C8  UNK     1       2.670  34.090 237.225  1.00  0.00     0.041 A 
ATOM      6  C9  UNK     1       1.340  33.839 236.889  1.00  0.00     0.046 A 
ENDROOT
BRANCH   2   7
ATOM      7  O1  UNK     1       0.283  37.162 235.770  1.00  0.00    -0.307 OA
BRANCH   7   8
ATOM      8  C11 UNK     1       0.138  37.265 234.398  1.00  0.00     0.076 A 
ATOM      9  C13 UNK     1       1.137  36.774 233.575  1.00  0.00     0.037 A 
ATOM     10  C15 UNK     1       0.991  36.879 232.191  1.00  0.00     0.003 A 
ATOM     11  C17 UNK     1      -0.149  37.474 231.653  1.00  0.00     0.000 A 
ATOM     12  C16 UNK     1      -1.145  37.964 232.498  1.00  0.00     0.003 A 
ATOM     13  C14 UNK     1      -1.000  37.859 233.882  1.00  0.00     0.037 A 
ENDBRANCH   7   8
ENDBRANCH   2   7
BRANCH   1  14
ATOM     14  N1  UNK     1       2.946  37.696 236.435  1.00  0.00    -0.388 N 
ATOM     15  H5  UNK     1       3.049  38.062 235.496  1.00  0.00     0.159 HD
BRANCH  14  16
ATOM     16  C1  UNK     1       3.431  38.492 237.536  1.00  0.00     0.120 C 
BRANCH  16  17
ATOM     17  C2  UNK     1       2.281  38.906 238.452  1.00  0.00     0.019 C 
BRANCH  17  18
ATOM     18  C6  UNK     1       1.228  39.751 237.732  1.00  0.00    -0.003 C 
ATOM     19  C10 UNK     1      -0.075  39.799 238.515  1.00  0.00     0.005 C 
ENDBRANCH  17  18
ENDBRANCH  16  17
ENDBRANCH  14  16
ENDBRANCH   1  14
BRANCH   3  20
ATOM     20  S1  UNK     1      -1.128  34.529 235.989  1.00  0.00     0.259 S 
ATOM     21  O2  UNK     1      -1.972  35.520 236.638  1.00  0.00    -0.201 OA
ATOM     22  O3  UNK     1      -1.213  34.333 234.549  1.00  0.00    -0.201 OA
BRANCH  20  23
ATOM     23  N2  UNK     1      -1.348  33.021 236.762  1.00  0.00    -0.324 N 
ATOM     24  H13 UNK     1      -2.288  32.796 237.110  1.00  0.00     0.169 HD
ATOM     25  H14 UNK     1      -0.588  32.680 237.364  1.00  0.00     0.169 HD
ENDBRANCH  20  23
ENDBRANCH   3  20
BRANCH   5  26
ATOM     26  C12 UNK     1       3.508  33.015 237.733  1.00  0.00     0.176 C 
ATOM     27  O5  UNK     1       3.791  31.978 237.122  1.00  0.00    -0.646 OA
BRANCH  26  28
ATOM     28  O4  UNK     1       3.968  33.262 238.990  1.00  0.00    -0.773 OA
ATOM     29  H20 UNK     1       3.466  32.763 239.668  1.00  0.00     0.167 HD
ENDBRANCH  26  28
ENDBRANCH   5  26
TORSDOF 10
ENDMDL
MODEL 8
REMARK VINA RESULT:      -5.4      3.086      5.714
REMARK  10 active torsions:
REMARK  status: ('A' for Active; 'I' for Inactive)
REMARK    1  A    between atoms: S1_1  and  N2_8 
REMARK    2  A    between atoms: S1_1  and  C5_13 
REMARK    3  A    between atoms: O1_2  and  C4_12 
REMARK    4  A    between atoms: O1_2  and  C11_19 
REMARK    5  A    between atoms: O4_5  and  C12_20 
REMARK    6  A    between atoms: N1_7  and  C1_9 
REMARK    7  A    between atoms: N1_7  and  C3_11 
REMARK    8  A    between atoms: C1_9  and  C2_10 
REMARK    9  A    between atoms: C2_10  and  C6_14 
REMARK   10  A    between atoms: C8_16  and  C12_20 
ROOT
ATOM      1  C3  UNK     1       0.032  36.899 234.579  1.00  0.00     0.065 A 
ATOM      2  C4  UNK     1       0.062  35.505 234.779  1.00  0.00     0.125 A 
ATOM      3  C5  UNK     1       0.194  34.629 233.702  1.00  0.00     0.116 A 
ATOM      4  C7  UNK     1       0.139  37.383 233.261  1.00  0.00     0.050 A 
ATOM      5  C8  UNK     1       0.271  36.507 232.184  1.00  0.00     0.041 A 
ATOM      6  C9  UNK     1       0.298  35.130 232.405  1.00  0.00     0.046 A 
ENDROOT
BRANCH   2   7
ATOM      7  O1  UNK     1      -0.041  35.018 236.049  1.00  0.00    -0.307 OA
BRANCH   7   8
ATOM      8  C11 UNK     1       1.033  35.212 236.899  1.00  0.00     0.076 A 
ATOM      9  C13 UNK     1       2.314  35.226 236.375  1.00  0.00     0.037 A 
ATOM     10  C15 UNK     1       3.397  35.421 237.232  1.00  0.00     0.003 A 
ATOM     11  C17 UNK     1       3.182  35.598 238.599  1.00  0.00     0.000 A 
ATOM     12  C16 UNK     1       1.884  35.579 239.109  1.00  0.00     0.003 A 
ATOM     13  C14 UNK     1       0.800  35.385 238.252  1.00  0.00     0.037 A 
ENDBRANCH   7   8
ENDBRANCH   2   7
BRANCH   1  14
ATOM     14  N1  UNK     1      -0.098  37.783 235.639  1.00  0.00    -0.388 N 
ATOM     15  H5  UNK     1      -1.007  37.864 236.079  1.00  0.00     0.159 HD
BRANCH  14  16
ATOM     16  C1  UNK     1       0.965  38.640 236.103  1.00  0.00     0.120 C 
BRANCH  16  17
ATOM     17  C2  UNK     1       0.548  39.382 237.372  1.00  0.00     0.019 C 
BRANCH  17  18
ATOM     18  C6  UNK     1       1.516  39.152 238.535  1.00  0.00    -0.003 C 
ATOM     19  C10 UNK     1       2.960  39.124 238.058  1.00  0.00     0.005 C 
ENDBRANCH  17  18
ENDBRANCH  16  17
ENDBRANCH  14  16
ENDBRANCH   1  14
BRANCH   3  20
ATOM     20  S1  UNK     1       0.232  32.897 233.950  1.00  0.00     0.259 S 
ATOM     21  O2  UNK     1      -0.017  32.247 232.673  1.00  0.00    -0.201 OA
ATOM     22  O3  UNK     1       1.428  32.570 234.712  1.00  0.00    -0.201 OA
BRANCH  20  23
ATOM     23  N2  UNK     1      -1.134  32.687 234.954  1.00  0.00    -0.324 N 
ATOM     24  H13 UNK     1      -1.515  31.738 235.049  1.00  0.00     0.169 HD
ATOM     25  H14 UNK     1      -1.850  33.424 234.945  1.00  0.00     0.169 HD
ENDBRANCH  20  23
ENDBRANCH   3  20
BRANCH   5  26
ATOM     26  C12 UNK     1       0.379  37.030 230.831  1.00  0.00     0.176 C 
ATOM     27  O5  UNK     1      -0.284  37.965 230.369  1.00  0.00    -0.646 OA
BRANCH  26  28
ATOM     28  O4  UNK     1       1.312  36.370 230.090  1.00  0.00    -0.773 OA
ATOM     29  H20 UNK     1       1.094  35.420 229.990  1.00  0.00     0.167 HD
ENDBRANCH  26  28
ENDBRANCH   5  26
TORSDOF 10
ENDMDL
MODEL 9
REMARK VINA RESULT:      -5.2      3.442      5.314
REMARK  10 active torsions:
REMARK  status: ('A' for Active; 'I' for Inactive)
REMARK    1  A    between atoms: S1_1  and  N2_8 
REMARK    2  A    between atoms: S1_1  and  C5_13 
REMARK    3  A    between atoms: O1_2  and  C4_12 
REMARK    4  A    between atoms: O1_2  and  C11_19 
REMARK    5  A    between atoms: O4_5  and  C12_20 
REMARK    6  A    between atoms: N1_7  and  C1_9 
REMARK    7  A    between atoms: N1_7  and  C3_11 
REMARK    8  A    between atoms: C1_9  and  C2_10 
REMARK    9  A    between atoms: C2_10  and  C6_14 
REMARK   10  A    between atoms: C8_16  and  C12_20 
ROOT
ATOM      1  C3  UNK     1      -1.275  36.233 236.374  1.00  0.00     0.065 A 
ATOM      2  C4  UNK     1      -0.425  37.357 236.356  1.00  0.00     0.125 A 
ATOM      3  C5  UNK     1       0.581  37.510 237.309  1.00  0.00     0.116 A 
ATOM      4  C7  UNK     1      -1.079  35.270 237.382  1.00  0.00     0.050 A 
ATOM      5  C8  UNK     1      -0.073  35.423 238.335  1.00  0.00     0.041 A 
ATOM      6  C9  UNK     1       0.757  36.544 238.299  1.00  0.00     0.046 A 
ENDROOT
BRANCH   2   7
ATOM      7  O1  UNK     1      -0.600  38.302 235.387  1.00  0.00    -0.307 OA
BRANCH   7   8
ATOM      8  C11 UNK     1      -0.337  37.935 234.080  1.00  0.00     0.076 A 
ATOM      9  C13 UNK     1      -1.218  38.314 233.081  1.00  0.00     0.037 A 
ATOM     10  C15 UNK     1      -0.952  37.943 231.763  1.00  0.00     0.003 A 
ATOM     11  C17 UNK     1       0.188  37.198 231.464  1.00  0.00     0.000 A 
ATOM     12  C16 UNK     1       1.064  36.824 232.483  1.00  0.00     0.003 A 
ATOM     13  C14 UNK     1       0.800  37.195 233.802  1.00  0.00     0.037 A 
ENDBRANCH   7   8
ENDBRANCH   2   7
BRANCH   1  14
ATOM     14  N1  UNK     1      -2.279  36.067 235.434  1.00  0.00    -0.388 N 
ATOM     15  H5  UNK     1      -2.010  35.984 234.461  1.00  0.00     0.159 HD
BRANCH  14  16
ATOM     16  C1  UNK     1      -3.686  36.073 235.754  1.00  0.00     0.120 C 
BRANCH  16  17
ATOM     17  C2  UNK     1      -4.414  37.164 234.971  1.00  0.00     0.019 C 
BRANCH  17  18
ATOM     18  C6  UNK     1      -5.919  36.906 234.861  1.00  0.00    -0.003 C 
ATOM     19  C10 UNK     1      -6.707  38.207 234.861  1.00  0.00     0.005 C 
ENDBRANCH  17  18
ENDBRANCH  16  17
ENDBRANCH  14  16
ENDBRANCH   1  14
BRANCH   3  20
ATOM     20  S1  UNK     1       1.637  38.905 237.286  1.00  0.00     0.259 S 
ATOM     21  O2  UNK     1       2.305  38.993 238.575  1.00  0.00    -0.201 OA
ATOM     22  O3  UNK     1       2.422  38.866 236.061  1.00  0.00    -0.201 OA
BRANCH  20  23
ATOM     23  N2  UNK     1       0.495  40.170 237.166  1.00  0.00    -0.324 N 
ATOM     24  H13 UNK     1       0.853  41.129 237.079  1.00  0.00     0.169 HD
ATOM     25  H14 UNK     1      -0.360  40.095 237.731  1.00  0.00     0.169 HD
ENDBRANCH  20  23
ENDBRANCH   3  20
BRANCH   5  26
ATOM     26  C12 UNK     1       0.110  34.415 239.367  1.00  0.00     0.176 C 
ATOM     27  O5  UNK     1       1.086  33.664 239.470  1.00  0.00    -0.646 OA
BRANCH  26  28
ATOM     28  O4  UNK     1      -0.930  34.372 240.244  1.00  0.00    -0.773 OA
ATOM     29  H20 UNK     1      -1.224  33.453 240.417  1.00  0.00     0.167 HD
ENDBRANCH  26  28
ENDBRANCH   5  26
TORSDOF 10
ENDMDL
