MODEL 1
REMARK VINA RESULT:      -6.2      0.000      0.000
REMARK  4 active torsions:
REMARK  status: ('A' for Active; 'I' for Inactive)
REMARK    1  A    between atoms: S1_1  and  C1_6 
REMARK    2  A    between atoms: S1_1  and  C2_7 
REMARK    3  A    between atoms: N1_4  and  C11_16 
REMARK    4  A    between atoms: N2_5  and  C12_17 
ROOT
ATOM      1  S1  UNK     1      -0.264  43.266 227.993  1.00  0.00     0.206 S 
ATOM      2  O1  UNK     1      -0.895  44.548 228.270  1.00  0.00    -0.217 OA
ATOM      3  O2  UNK     1      -0.122  42.811 226.615  1.00  0.00    -0.217 OA
ENDROOT
BRANCH   1   4
ATOM      4  C1  UNK     1       1.314  43.323 228.740  1.00  0.00     0.064 A 
ATOM      5  C3  UNK     1       2.398  42.695 228.128  1.00  0.00     0.026 A 
ATOM      6  C7  UNK     1       3.658  42.742 228.725  1.00  0.00     0.030 A 
ATOM      7  C11 UNK     1       3.833  43.416 229.935  1.00  0.00     0.025 A 
ATOM      8  C9  UNK     1       2.748  44.043 230.546  1.00  0.00     0.030 A 
ATOM      9  C5  UNK     1       1.489  43.997 229.949  1.00  0.00     0.026 A 
BRANCH   7  10
ATOM     10  N1  UNK     1       5.107  43.463 230.538  1.00  0.00    -0.399 N 
ATOM     11  H9  UNK     1       5.427  44.314 230.980  1.00  0.00     0.156 HD
ATOM     12  H10 UNK     1       5.702  42.645 230.529  1.00  0.00     0.156 HD
ENDBRANCH   7  10
ENDBRANCH   1   4
BRANCH   1  13
ATOM     13  C2  UNK     1      -1.219  42.007 228.795  1.00  0.00     0.064 A 
ATOM     14  C4  UNK     1      -0.573  41.078 229.588  1.00  0.00     0.026 A 
ATOM     15  C8  UNK     1      -1.326  40.087 230.220  1.00  0.00     0.030 A 
ATOM     16  C12 UNK     1      -2.710  40.045 230.046  1.00  0.00     0.025 A 
ATOM     17  C10 UNK     1      -3.340  40.993 229.240  1.00  0.00     0.030 A 
ATOM     18  C6  UNK     1      -2.588  41.983 228.609  1.00  0.00     0.026 A 
BRANCH  16  19
ATOM     19  N2  UNK     1      -3.470  39.044 230.685  1.00  0.00    -0.399 N 
ATOM     20  H11 UNK     1      -4.320  38.703 230.256  1.00  0.00     0.156 HD
ATOM     21  H12 UNK     1      -3.168  38.668 231.574  1.00  0.00     0.156 HD
ENDBRANCH  16  19
ENDBRANCH   1  13
TORSDOF 4
ENDMDL
MODEL 2
REMARK VINA RESULT:      -5.6      8.462     10.143
REMARK  4 active torsions:
REMARK  status: ('A' for Active; 'I' for Inactive)
REMARK    1  A    between atoms: S1_1  and  C1_6 
REMARK    2  A    between atoms: S1_1  and  C2_7 
REMARK    3  A    between atoms: N1_4  and  C11_16 
REMARK    4  A    between atoms: N2_5  and  C12_17 
ROOT
ATOM      1  S1  UNK     1       0.544  35.470 236.235  1.00  0.00     0.206 S 
ATOM      2  O1  UNK     1      -0.827  35.754 236.633  1.00  0.00    -0.217 OA
ATOM      3  O2  UNK     1       1.136  34.176 236.549  1.00  0.00    -0.217 OA
ENDROOT
BRANCH   1   4
ATOM      4  C1  UNK     1       0.618  35.726 234.509  1.00  0.00     0.064 A 
ATOM      5  C3  UNK     1       1.064  36.946 234.003  1.00  0.00     0.026 A 
ATOM      6  C7  UNK     1       1.123  37.150 232.624  1.00  0.00     0.030 A 
ATOM      7  C11 UNK     1       0.735  36.133 231.751  1.00  0.00     0.025 A 
ATOM      8  C9  UNK     1       0.287  34.913 232.258  1.00  0.00     0.030 A 
ATOM      9  C5  UNK     1       0.229  34.709 233.636  1.00  0.00     0.026 A 
BRANCH   7  10
ATOM     10  N1  UNK     1       0.794  36.339 230.358  1.00  0.00    -0.399 N 
ATOM     11  H9  UNK     1       0.564  35.585 229.724  1.00  0.00     0.156 HD
ATOM     12  H10 UNK     1       1.068  37.241 229.990  1.00  0.00     0.156 HD
ENDBRANCH   7  10
ENDBRANCH   1   4
BRANCH   1  13
ATOM     13  C2  UNK     1       1.594  36.659 237.024  1.00  0.00     0.064 A 
ATOM     14  C4  UNK     1       1.023  37.766 237.623  1.00  0.00     0.026 A 
ATOM     15  C8  UNK     1       1.850  38.702 238.245  1.00  0.00     0.030 A 
ATOM     16  C12 UNK     1       3.232  38.512 238.257  1.00  0.00     0.025 A 
ATOM     17  C10 UNK     1       3.787  37.388 237.647  1.00  0.00     0.030 A 
ATOM     18  C6  UNK     1       2.960  36.452 237.026  1.00  0.00     0.026 A 
BRANCH  16  19
ATOM     19  N2  UNK     1       4.068  39.458 238.887  1.00  0.00    -0.399 N 
ATOM     20  H11 UNK     1       4.566  40.141 238.332  1.00  0.00     0.156 HD
ATOM     21  H12 UNK     1       4.172  39.451 239.893  1.00  0.00     0.156 HD
ENDBRANCH  16  19
ENDBRANCH   1  13
TORSDOF 4
ENDMDL
MODEL 3
REMARK VINA RESULT:      -5.6      8.459      9.462
REMARK  4 active torsions:
REMARK  status: ('A' for Active; 'I' for Inactive)
REMARK    1  A    between atoms: S1_1  and  C1_6 
REMARK    2  A    between atoms: S1_1  and  C2_7 
REMARK    3  A    between atoms: N1_4  and  C11_16 
REMARK    4  A    between atoms: N2_5  and  C12_17 
ROOT
ATOM      1  S1  UNK     1       0.544  35.453 236.225  1.00  0.00     0.206 S 
ATOM      2  O1  UNK     1       1.122  34.146 236.503  1.00  0.00    -0.217 OA
ATOM      3  O2  UNK     1      -0.842  35.724 236.587  1.00  0.00    -0.217 OA
ENDROOT
BRANCH   1   4
ATOM      4  C1  UNK     1       1.576  36.625 237.006  1.00  0.00     0.064 A 
ATOM      5  C3  UNK     1       1.017  37.726 237.653  1.00  0.00     0.026 A 
ATOM      6  C7  UNK     1       1.842  38.662 238.277  1.00  0.00     0.030 A 
ATOM      7  C11 UNK     1       3.228  38.496 238.254  1.00  0.00     0.025 A 
ATOM      8  C9  UNK     1       3.787  37.395 237.605  1.00  0.00     0.030 A 
ATOM      9  C5  UNK     1       2.962  36.459 236.982  1.00  0.00     0.026 A 
BRANCH   7  10
ATOM     10  N1  UNK     1       4.062  39.441 238.885  1.00  0.00    -0.399 N 
ATOM     11  H9  UNK     1       4.770  39.135 239.540  1.00  0.00     0.156 HD
ATOM     12  H10 UNK     1       3.954  40.426 238.683  1.00  0.00     0.156 HD
ENDBRANCH   7  10
ENDBRANCH   1   4
BRANCH   1  13
ATOM     13  C2  UNK     1       0.620  35.717 234.474  1.00  0.00     0.064 A 
ATOM     14  C4  UNK     1       1.060  36.937 233.998  1.00  0.00     0.026 A 
ATOM     15  C8  UNK     1       1.120  37.145 232.619  1.00  0.00     0.030 A 
ATOM     16  C12 UNK     1       0.740  36.127 231.743  1.00  0.00     0.025 A 
ATOM     17  C10 UNK     1       0.299  34.903 232.246  1.00  0.00     0.030 A 
ATOM     18  C6  UNK     1       0.239  34.696 233.624  1.00  0.00     0.026 A 
BRANCH  16  19
ATOM     19  N2  UNK     1       0.801  36.336 230.350  1.00  0.00    -0.399 N 
ATOM     20  H11 UNK     1       0.171  35.839 229.736  1.00  0.00     0.156 HD
ATOM     21  H12 UNK     1       1.478  36.982 229.965  1.00  0.00     0.156 HD
ENDBRANCH  16  19
ENDBRANCH   1  13
TORSDOF 4
ENDMDL
MODEL 4
REMARK VINA RESULT:      -5.6      8.468      9.469
REMARK  4 active torsions:
REMARK  status: ('A' for Active; 'I' for Inactive)
REMARK    1  A    between atoms: S1_1  and  C1_6 
REMARK    2  A    between atoms: S1_1  and  C2_7 
REMARK    3  A    between atoms: N1_4  and  C11_16 
REMARK    4  A    between atoms: N2_5  and  C12_17 
ROOT
ATOM      1  S1  UNK     1       0.546  35.450 236.240  1.00  0.00     0.206 S 
ATOM      2  O1  UNK     1       1.126  34.145 236.519  1.00  0.00    -0.217 OA
ATOM      3  O2  UNK     1      -0.840  35.720 236.605  1.00  0.00    -0.217 OA
ENDROOT
BRANCH   1   4
ATOM      4  C1  UNK     1       1.578  36.624 237.018  1.00  0.00     0.064 A 
ATOM      5  C3  UNK     1       1.023  37.755 237.615  1.00  0.00     0.026 A 
ATOM      6  C7  UNK     1       1.848  38.692 238.237  1.00  0.00     0.030 A 
ATOM      7  C11 UNK     1       3.230  38.498 238.260  1.00  0.00     0.025 A 
ATOM      8  C9  UNK     1       3.785  37.368 237.661  1.00  0.00     0.030 A 
ATOM      9  C5  UNK     1       2.960  36.430 237.041  1.00  0.00     0.026 A 
BRANCH   7  10
ATOM     10  N1  UNK     1       4.064  39.445 238.888  1.00  0.00    -0.399 N 
ATOM     11  H9  UNK     1       3.934  39.665 239.867  1.00  0.00     0.156 HD
ATOM     12  H10 UNK     1       4.795  39.906 238.361  1.00  0.00     0.156 HD
ENDBRANCH   7  10
ENDBRANCH   1   4
BRANCH   1  13
ATOM     13  C2  UNK     1       0.617  35.712 234.489  1.00  0.00     0.064 A 
ATOM     14  C4  UNK     1       0.234  34.689 233.642  1.00  0.00     0.026 A 
ATOM     15  C8  UNK     1       0.290  34.895 232.263  1.00  0.00     0.030 A 
ATOM     16  C12 UNK     1       0.728  36.120 231.757  1.00  0.00     0.025 A 
ATOM     17  C10 UNK     1       1.109  37.138 232.631  1.00  0.00     0.030 A 
ATOM     18  C6  UNK     1       1.053  36.932 234.009  1.00  0.00     0.026 A 
BRANCH  16  19
ATOM     19  N2  UNK     1       0.784  36.328 230.364  1.00  0.00    -0.399 N 
ATOM     20  H11 UNK     1       0.412  35.630 229.733  1.00  0.00     0.156 HD
ATOM     21  H12 UNK     1       1.198  37.173 229.995  1.00  0.00     0.156 HD
ENDBRANCH  16  19
ENDBRANCH   1  13
TORSDOF 4
ENDMDL
MODEL 5
REMARK VINA RESULT:      -5.6      2.909      6.433
REMARK  4 active torsions:
REMARK  status: ('A' for Active; 'I' for Inactive)
REMARK    1  A    between atoms: S1_1  and  C1_6 
REMARK    2  A    between atoms: S1_1  and  C2_7 
REMARK    3  A    between atoms: N1_4  and  C11_16 
REMARK    4  A    between atoms: N2_5  and  C12_17 
ROOT
ATOM      1  S1  UNK     1      -0.714  41.736 229.166  1.00  0.00     0.206 S 
ATOM      2  O1  UNK     1      -0.921  41.475 230.584  1.00  0.00    -0.217 OA
ATOM      3  O2  UNK     1       0.170  40.873 228.393  1.00  0.00    -0.217 OA
ENDROOT
BRANCH   1   4
ATOM      4  C1  UNK     1      -2.297  41.737 228.430  1.00  0.00     0.064 A 
ATOM      5  C3  UNK     1      -2.545  42.528 227.308  1.00  0.00     0.026 A 
ATOM      6  C7  UNK     1      -3.810  42.528 226.720  1.00  0.00     0.030 A 
ATOM      7  C11 UNK     1      -4.828  41.736 227.254  1.00  0.00     0.025 A 
ATOM      8  C9  UNK     1      -4.580  40.946 228.376  1.00  0.00     0.030 A 
ATOM      9  C5  UNK     1      -3.315  40.945 228.963  1.00  0.00     0.026 A 
BRANCH   7  10
ATOM     10  N1  UNK     1      -6.106  41.736 226.660  1.00  0.00    -0.399 N 
ATOM     11  H9  UNK     1      -6.250  42.188 225.766  1.00  0.00     0.156 HD
ATOM     12  H10 UNK     1      -6.881  41.283 227.125  1.00  0.00     0.156 HD
ENDBRANCH   7  10
ENDBRANCH   1   4
BRANCH   1  13
ATOM     13  C2  UNK     1      -0.021  43.359 229.010  1.00  0.00     0.064 A 
ATOM     14  C4  UNK     1       0.496  43.753 227.791  1.00  0.00     0.026 A 
ATOM     15  C8  UNK     1       1.042  45.032 227.668  1.00  0.00     0.030 A 
ATOM     16  C12 UNK     1       1.058  45.892 228.766  1.00  0.00     0.025 A 
ATOM     17  C10 UNK     1       0.530  45.473 229.987  1.00  0.00     0.030 A 
ATOM     18  C6  UNK     1      -0.015  44.195 230.110  1.00  0.00     0.026 A 
BRANCH  16  19
ATOM     19  N2  UNK     1       1.608  47.184 228.642  1.00  0.00    -0.399 N 
ATOM     20  H11 UNK     1       1.701  47.609 227.729  1.00  0.00     0.156 HD
ATOM     21  H12 UNK     1       1.913  47.686 229.465  1.00  0.00     0.156 HD
ENDBRANCH  16  19
ENDBRANCH   1  13
TORSDOF 4
ENDMDL
MODEL 6
REMARK VINA RESULT:      -5.4     10.292     11.597
REMARK  4 active torsions:
REMARK  status: ('A' for Active; 'I' for Inactive)
REMARK    1  A    between atoms: S1_1  and  C1_6 
REMARK    2  A    between atoms: S1_1  and  C2_7 
REMARK    3  A    between atoms: N1_4  and  C11_16 
REMARK    4  A    between atoms: N2_5  and  C12_17 
ROOT
ATOM      1  S1  UNK     1       2.820  36.145 238.368  1.00  0.00     0.206 S 
ATOM      2  O1  UNK     1       2.062  36.099 239.610  1.00  0.00    -0.217 OA
ATOM      3  O2  UNK     1       4.065  36.899 238.308  1.00  0.00    -0.217 OA
ENDROOT
BRANCH   1   4
ATOM      4  C1  UNK     1       3.136  34.486 237.923  1.00  0.00     0.064 A 
ATOM      5  C3  UNK     1       3.387  33.535 238.911  1.00  0.00     0.026 A 
ATOM      6  C7  UNK     1       3.639  32.210 238.554  1.00  0.00     0.030 A 
ATOM      7  C11 UNK     1       3.640  31.837 237.210  1.00  0.00     0.025 A 
ATOM      8  C9  UNK     1       3.390  32.789 236.222  1.00  0.00     0.030 A 
ATOM      9  C5  UNK     1       3.137  34.114 236.578  1.00  0.00     0.026 A 
BRANCH   7  10
ATOM     10  N1  UNK     1       3.895  30.498 236.850  1.00  0.00    -0.399 N 
ATOM     11  H9  UNK     1       3.721  29.753 237.512  1.00  0.00     0.156 HD
ATOM     12  H10 UNK     1       4.251  30.280 235.928  1.00  0.00     0.156 HD
ENDBRANCH   7  10
ENDBRANCH   1   4
BRANCH   1  13
ATOM     13  C2  UNK     1       1.783  36.872 237.128  1.00  0.00     0.064 A 
ATOM     14  C4  UNK     1       2.366  37.614 236.118  1.00  0.00     0.026 A 
ATOM     15  C8  UNK     1       1.550  38.186 235.141  1.00  0.00     0.030 A 
ATOM     16  C12 UNK     1       0.168  38.005 235.193  1.00  0.00     0.025 A 
ATOM     17  C10 UNK     1      -0.398  37.252 236.222  1.00  0.00     0.030 A 
ATOM     18  C6  UNK     1       0.417  36.680 237.198  1.00  0.00     0.026 A 
BRANCH  16  19
ATOM     19  N2  UNK     1      -0.656  38.582 234.205  1.00  0.00    -0.399 N 
ATOM     20  H11 UNK     1      -1.469  39.121 234.476  1.00  0.00     0.156 HD
ATOM     21  H12 UNK     1      -0.438  38.456 233.226  1.00  0.00     0.156 HD
ENDBRANCH  16  19
ENDBRANCH   1  13
TORSDOF 4
ENDMDL
MODEL 7
REMARK VINA RESULT:      -5.3      7.894      9.598
REMARK  4 active torsions:
REMARK  status: ('A' for Active; 'I' for Inactive)
REMARK    1  A    between atoms: S1_1  and  C1_6 
REMARK    2  A    between atoms: S1_1  and  C2_7 
REMARK    3  A    between atoms: N1_4  and  C11_16 
REMARK    4  A    between atoms: N2_5  and  C12_17 
ROOT
ATOM      1  S1  UNK     1      -0.039  36.289 236.154  1.00  0.00     0.206 S 
ATOM      2  O1  UNK     1      -1.326  36.611 236.753  1.00  0.00    -0.217 OA
ATOM      3  O2  UNK     1       0.463  34.921 236.209  1.00  0.00    -0.217 OA
ENDROOT
BRANCH   1   4
ATOM      4  C1  UNK     1      -0.132  36.795 234.485  1.00  0.00     0.064 A 
ATOM      5  C3  UNK     1       0.767  36.284 233.550  1.00  0.00     0.026 A 
ATOM      6  C7  UNK     1       0.692  36.689 232.217  1.00  0.00     0.030 A 
ATOM      7  C11 UNK     1      -0.283  37.605 231.819  1.00  0.00     0.025 A 
ATOM      8  C9  UNK     1      -1.182  38.116 232.756  1.00  0.00     0.030 A 
ATOM      9  C5  UNK     1      -1.107  37.711 234.088  1.00  0.00     0.026 A 
BRANCH   7  10
ATOM     10  N1  UNK     1      -0.359  38.013 230.473  1.00  0.00    -0.399 N 
ATOM     11  H9  UNK     1       0.440  38.446 230.028  1.00  0.00     0.156 HD
ATOM     12  H10 UNK     1      -1.213  37.874 229.948  1.00  0.00     0.156 HD
ENDBRANCH   7  10
ENDBRANCH   1   4
BRANCH   1  13
ATOM     13  C2  UNK     1       1.197  37.263 236.968  1.00  0.00     0.064 A 
ATOM     14  C4  UNK     1       0.798  38.281 237.815  1.00  0.00     0.026 A 
ATOM     15  C8  UNK     1       1.771  39.048 238.457  1.00  0.00     0.030 A 
ATOM     16  C12 UNK     1       3.124  38.783 238.240  1.00  0.00     0.025 A 
ATOM     17  C10 UNK     1       3.503  37.751 237.382  1.00  0.00     0.030 A 
ATOM     18  C6  UNK     1       2.530  36.984 236.740  1.00  0.00     0.026 A 
BRANCH  16  19
ATOM     19  N2  UNK     1       4.107  39.557 238.889  1.00  0.00    -0.399 N 
ATOM     20  H11 UNK     1       4.442  40.411 238.462  1.00  0.00     0.156 HD
ATOM     21  H12 UNK     1       4.479  39.260 239.781  1.00  0.00     0.156 HD
ENDBRANCH  16  19
ENDBRANCH   1  13
TORSDOF 4
ENDMDL
MODEL 8
REMARK VINA RESULT:      -5.3      2.935      6.081
REMARK  4 active torsions:
REMARK  status: ('A' for Active; 'I' for Inactive)
REMARK    1  A    between atoms: S1_1  and  C1_6 
REMARK    2  A    between atoms: S1_1  and  C2_7 
REMARK    3  A    between atoms: N1_4  and  C11_16 
REMARK    4  A    between atoms: N2_5  and  C12_17 
ROOT
ATOM      1  S1  UNK     1      -1.560  41.801 229.184  1.00  0.00     0.206 S 
ATOM      2  O1  UNK     1      -2.413  42.472 230.155  1.00  0.00    -0.217 OA
ATOM      3  O2  UNK     1      -1.320  40.368 229.299  1.00  0.00    -0.217 OA
ENDROOT
BRANCH   1   4
ATOM      4  C1  UNK     1      -2.240  42.141 227.613  1.00  0.00     0.064 A 
ATOM      5  C3  UNK     1      -3.507  41.661 227.282  1.00  0.00     0.026 A 
ATOM      6  C7  UNK     1      -4.050  41.933 226.026  1.00  0.00     0.030 A 
ATOM      7  C11 UNK     1      -3.326  42.685 225.101  1.00  0.00     0.025 A 
ATOM      8  C9  UNK     1      -2.059  43.165 225.431  1.00  0.00     0.030 A 
ATOM      9  C5  UNK     1      -1.516  42.893 226.687  1.00  0.00     0.026 A 
BRANCH   7  10
ATOM     10  N1  UNK     1      -3.875  42.960 223.832  1.00  0.00    -0.399 N 
ATOM     11  H9  UNK     1      -4.754  42.540 223.558  1.00  0.00     0.156 HD
ATOM     12  H10 UNK     1      -3.392  43.579 223.194  1.00  0.00     0.156 HD
ENDBRANCH   7  10
ENDBRANCH   1   4
BRANCH   1  13
ATOM     13  C2  UNK     1       0.047  42.543 229.273  1.00  0.00     0.064 A 
ATOM     14  C4  UNK     1       0.231  43.650 230.080  1.00  0.00     0.026 A 
ATOM     15  C8  UNK     1       1.497  44.233 230.151  1.00  0.00     0.030 A 
ATOM     16  C12 UNK     1       2.554  43.699 229.413  1.00  0.00     0.025 A 
ATOM     17  C10 UNK     1       2.345  42.581 228.605  1.00  0.00     0.030 A 
ATOM     18  C6  UNK     1       1.080  41.998 228.535  1.00  0.00     0.026 A 
BRANCH  16  19
ATOM     19  N2  UNK     1       3.832  44.288 229.484  1.00  0.00    -0.399 N 
ATOM     20  H11 UNK     1       4.360  44.250 230.347  1.00  0.00     0.156 HD
ATOM     21  H12 UNK     1       4.222  44.753 228.675  1.00  0.00     0.156 HD
ENDBRANCH  16  19
ENDBRANCH   1  13
TORSDOF 4
ENDMDL
MODEL 9
REMARK VINA RESULT:      -5.3      7.603      9.268
REMARK  4 active torsions:
REMARK  status: ('A' for Active; 'I' for Inactive)
REMARK    1  A    between atoms: S1_1  and  C1_6 
REMARK    2  A    between atoms: S1_1  and  C2_7 
REMARK    3  A    between atoms: N1_4  and  C11_16 
REMARK    4  A    between atoms: N2_5  and  C12_17 
ROOT
ATOM      1  S1  UNK     1       0.777  37.745 235.490  1.00  0.00     0.206 S 
ATOM      2  O1  UNK     1       1.766  38.810 235.568  1.00  0.00    -0.217 OA
ATOM      3  O2  UNK     1      -0.424  37.811 236.313  1.00  0.00    -0.217 OA
ENDROOT
BRANCH   1   4
ATOM      4  C1  UNK     1       0.311  37.629 233.811  1.00  0.00     0.064 A 
ATOM      5  C3  UNK     1      -0.904  38.164 233.385  1.00  0.00     0.026 A 
ATOM      6  C7  UNK     1      -1.276  38.071 232.044  1.00  0.00     0.030 A 
ATOM      7  C11 UNK     1      -0.431  37.444 231.127  1.00  0.00     0.025 A 
ATOM      8  C9  UNK     1       0.785  36.909 231.554  1.00  0.00     0.030 A 
ATOM      9  C5  UNK     1       1.156  37.002 232.894  1.00  0.00     0.026 A 
BRANCH   7  10
ATOM     10  N1  UNK     1      -0.806  37.350 229.772  1.00  0.00    -0.399 N 
ATOM     11  H9  UNK     1      -1.529  37.954 229.403  1.00  0.00     0.156 HD
ATOM     12  H10 UNK     1      -0.352  36.680 229.165  1.00  0.00     0.156 HD
ENDBRANCH   7  10
ENDBRANCH   1   4
BRANCH   1  13
ATOM     13  C2  UNK     1       1.571  36.232 235.958  1.00  0.00     0.064 A 
ATOM     14  C4  UNK     1       2.767  36.288 236.648  1.00  0.00     0.026 A 
ATOM     15  C8  UNK     1       3.392  35.097 237.018  1.00  0.00     0.030 A 
ATOM     16  C12 UNK     1       2.810  33.872 236.690  1.00  0.00     0.025 A 
ATOM     17  C10 UNK     1       1.602  33.839 235.993  1.00  0.00     0.030 A 
ATOM     18  C6  UNK     1       0.977  35.030 235.624  1.00  0.00     0.026 A 
BRANCH  16  19
ATOM     19  N2  UNK     1       3.441  32.668 237.064  1.00  0.00    -0.399 N 
ATOM     20  H11 UNK     1       3.540  32.431 238.042  1.00  0.00     0.156 HD
ATOM     21  H12 UNK     1       3.799  32.042 236.354  1.00  0.00     0.156 HD
ENDBRANCH  16  19
ENDBRANCH   1  13
TORSDOF 4
ENDMDL
