MODEL 1
REMARK VINA RESULT:      -6.4      0.000      0.000
REMARK  6 active torsions:
REMARK  status: ('A' for Active; 'I' for Inactive)
REMARK    1  A    between atoms: C6_7  and  C7_8 
REMARK    2  A    between atoms: C7_8  and  C8_9 
REMARK    3  A    between atoms: C7_8  and  C9_11 
REMARK    4  A    between atoms: C8_9  and  N1_10 
REMARK    5  A    between atoms: C9_11  and  C10_12 
REMARK    6  A    between atoms: C10_12  and  O1_13 
ROOT
ATOM      1  C7  UNK     1       1.797  43.835 228.050  1.00  0.00     0.056 C 
ENDROOT
BRANCH   1   2
ATOM      2  C6  UNK     1       0.437  43.288 228.291  1.00  0.00    -0.052 A 
ATOM      3  C3  UNK     1      -0.531  43.260 227.280  1.00  0.00     0.009 A 
ATOM      4  C2  UNK     1      -1.769  42.658 227.495  1.00  0.00     0.024 A 
ATOM      5  C1  UNK     1      -2.028  42.089 228.751  1.00  0.00     0.034 A 
ATOM      6 Cl1  UNK     1      -3.593  41.308 229.077  1.00  0.00    -0.084 Cl
ATOM      7  C4  UNK     1      -1.059  42.052 229.742  1.00  0.00     0.024 A 
ATOM      8  C5  UNK     1       0.176  42.677 229.538  1.00  0.00     0.009 A 
ENDBRANCH   1   2
BRANCH   1   9
ATOM      9  C8  UNK     1       2.896  42.756 228.225  1.00  0.00     0.276 C 
BRANCH   9  10
ATOM     10  N1  UNK     1       3.772  43.115 229.350  1.00  0.00     0.079 N 
ATOM     11  H8  UNK     1       4.727  42.991 229.083  1.00  0.00     0.312 HD
ATOM     12  H9  UNK     1       3.617  44.070 229.601  1.00  0.00     0.312 HD
ENDBRANCH   9  10
ENDBRANCH   1   9
BRANCH   1  13
ATOM     13  C9  UNK     1       2.046  44.955 229.096  1.00  0.00     0.121 C 
BRANCH  13  14
ATOM     14  C10 UNK     1       1.252  46.231 228.866  1.00  0.00     0.140 C 
ATOM     15  O2  UNK     1       0.336  46.570 229.776  1.00  0.00    -0.650 OA
BRANCH  14  16
ATOM     16  O1  UNK     1       1.461  46.979 227.905  1.00  0.00    -0.776 OA
ATOM     17  H12 UNK     1       2.380  46.939 227.666  1.00  0.00     0.167 HD
ENDBRANCH  14  16
ENDBRANCH  13  14
ENDBRANCH   1  13
TORSDOF 6
ENDMDL
MODEL 2
REMARK VINA RESULT:      -6.3      2.330      3.015
REMARK  6 active torsions:
REMARK  status: ('A' for Active; 'I' for Inactive)
REMARK    1  A    between atoms: C6_7  and  C7_8 
REMARK    2  A    between atoms: C7_8  and  C8_9 
REMARK    3  A    between atoms: C7_8  and  C9_11 
REMARK    4  A    between atoms: C8_9  and  N1_10 
REMARK    5  A    between atoms: C9_11  and  C10_12 
REMARK    6  A    between atoms: C10_12  and  O1_13 
ROOT
ATOM      1  C7  UNK     1       1.043  44.445 229.583  1.00  0.00     0.056 C 
ENDROOT
BRANCH   1   2
ATOM      2  C6  UNK     1      -0.066  43.647 228.999  1.00  0.00    -0.052 A 
ATOM      3  C3  UNK     1      -0.878  42.830 229.795  1.00  0.00     0.009 A 
ATOM      4  C2  UNK     1      -1.971  42.162 229.247  1.00  0.00     0.024 A 
ATOM      5  C1  UNK     1      -2.233  42.317 227.877  1.00  0.00     0.034 A 
ATOM      6 Cl1  UNK     1      -3.616  41.486 227.128  1.00  0.00    -0.084 Cl
ATOM      7  C4  UNK     1      -1.476  43.170 227.088  1.00  0.00     0.024 A 
ATOM      8  C5  UNK     1      -0.364  43.823 227.630  1.00  0.00     0.009 A 
ENDBRANCH   1   2
BRANCH   1   9
ATOM      9  C8  UNK     1       1.443  45.634 228.673  1.00  0.00     0.276 C 
BRANCH   9  10
ATOM     10  N1  UNK     1       1.056  46.901 229.309  1.00  0.00     0.079 N 
ATOM     11  H8  UNK     1       1.447  47.666 228.796  1.00  0.00     0.312 HD
ATOM     12  H9  UNK     1       0.059  46.979 229.315  1.00  0.00     0.312 HD
ENDBRANCH   9  10
ENDBRANCH   1   9
BRANCH   1  13
ATOM     13  C9  UNK     1       2.272  43.509 229.728  1.00  0.00     0.121 C 
BRANCH  13  14
ATOM     14  C10 UNK     1       3.422  44.087 230.537  1.00  0.00     0.140 C 
ATOM     15  O2  UNK     1       4.548  44.398 229.890  1.00  0.00    -0.650 OA
BRANCH  14  16
ATOM     16  O1  UNK     1       3.330  44.323 231.746  1.00  0.00    -0.776 OA
ATOM     17  H12 UNK     1       2.821  45.115 231.877  1.00  0.00     0.167 HD
ENDBRANCH  14  16
ENDBRANCH  13  14
ENDBRANCH   1  13
TORSDOF 6
ENDMDL
MODEL 3
REMARK VINA RESULT:      -6.1      1.476      1.815
REMARK  6 active torsions:
REMARK  status: ('A' for Active; 'I' for Inactive)
REMARK    1  A    between atoms: C6_7  and  C7_8 
REMARK    2  A    between atoms: C7_8  and  C8_9 
REMARK    3  A    between atoms: C7_8  and  C9_11 
REMARK    4  A    between atoms: C8_9  and  N1_10 
REMARK    5  A    between atoms: C9_11  and  C10_12 
REMARK    6  A    between atoms: C10_12  and  O1_13 
ROOT
ATOM      1  C7  UNK     1       0.164  43.611 227.782  1.00  0.00     0.056 C 
ENDROOT
BRANCH   1   2
ATOM      2  C6  UNK     1      -1.180  42.978 227.774  1.00  0.00    -0.052 A 
ATOM      3  C3  UNK     1      -1.995  43.004 226.636  1.00  0.00     0.009 A 
ATOM      4  C2  UNK     1      -3.212  42.326 226.615  1.00  0.00     0.024 A 
ATOM      5  C1  UNK     1      -3.606  41.623 227.763  1.00  0.00     0.034 A 
ATOM      6 Cl1  UNK     1      -5.150  40.739 227.788  1.00  0.00    -0.084 Cl
ATOM      7  C4  UNK     1      -2.784  41.535 228.877  1.00  0.00     0.024 A 
ATOM      8  C5  UNK     1      -1.574  42.235 228.910  1.00  0.00     0.009 A 
ENDBRANCH   1   2
BRANCH   1   9
ATOM      9  C8  UNK     1       1.301  42.558 227.762  1.00  0.00     0.276 C 
BRANCH   9  10
ATOM     10  N1  UNK     1       2.399  43.028 226.905  1.00  0.00     0.079 N 
ATOM     11  H8  UNK     1       2.903  42.241 226.547  1.00  0.00     0.312 HD
ATOM     12  H9  UNK     1       2.024  43.557 226.144  1.00  0.00     0.312 HD
ENDBRANCH   9  10
ENDBRANCH   1   9
BRANCH   1  13
ATOM     13  C9  UNK     1       0.288  44.435 229.092  1.00  0.00     0.121 C 
BRANCH  13  14
ATOM     14  C10 UNK     1       1.138  45.690 228.978  1.00  0.00     0.140 C 
ATOM     15  O2  UNK     1       0.509  46.865 228.897  1.00  0.00    -0.650 OA
BRANCH  14  16
ATOM     16  O1  UNK     1       2.373  45.662 229.011  1.00  0.00    -0.776 OA
ATOM     17  H12 UNK     1       2.720  46.015 228.200  1.00  0.00     0.167 HD
ENDBRANCH  14  16
ENDBRANCH  13  14
ENDBRANCH   1  13
TORSDOF 6
ENDMDL
MODEL 4
REMARK VINA RESULT:      -5.6      3.870      5.016
REMARK  6 active torsions:
REMARK  status: ('A' for Active; 'I' for Inactive)
REMARK    1  A    between atoms: C6_7  and  C7_8 
REMARK    2  A    between atoms: C7_8  and  C8_9 
REMARK    3  A    between atoms: C7_8  and  C9_11 
REMARK    4  A    between atoms: C8_9  and  N1_10 
REMARK    5  A    between atoms: C9_11  and  C10_12 
REMARK    6  A    between atoms: C10_12  and  O1_13 
ROOT
ATOM      1  C7  UNK     1      -1.023  43.008 228.208  1.00  0.00     0.056 C 
ENDROOT
BRANCH   1   2
ATOM      2  C6  UNK     1       0.390  43.073 228.661  1.00  0.00    -0.052 A 
ATOM      3  C3  UNK     1       1.427  42.506 227.911  1.00  0.00     0.009 A 
ATOM      4  C2  UNK     1       2.755  42.658 228.302  1.00  0.00     0.024 A 
ATOM      5  C1  UNK     1       3.030  43.383 229.471  1.00  0.00     0.034 A 
ATOM      6 Cl1  UNK     1       4.709  43.606 230.015  1.00  0.00    -0.084 Cl
ATOM      7  C4  UNK     1       2.021  44.004 230.192  1.00  0.00     0.024 A 
ATOM      8  C5  UNK     1       0.685  43.833 229.815  1.00  0.00     0.009 A 
ENDBRANCH   1   2
BRANCH   1   9
ATOM      9  C8  UNK     1      -1.728  41.715 228.690  1.00  0.00     0.276 C 
BRANCH   9  10
ATOM     10  N1  UNK     1      -2.487  41.989 229.919  1.00  0.00     0.079 N 
ATOM     11  H8  UNK     1      -2.791  41.127 230.324  1.00  0.00     0.312 HD
ATOM     12  H9  UNK     1      -1.902  42.475 230.569  1.00  0.00     0.312 HD
ENDBRANCH   9  10
ENDBRANCH   1   9
BRANCH   1  13
ATOM     13  C9  UNK     1      -1.021  43.009 226.656  1.00  0.00     0.121 C 
BRANCH  13  14
ATOM     14  C10 UNK     1      -2.399  43.034 226.015  1.00  0.00     0.140 C 
ATOM     15  O2  UNK     1      -2.708  42.057 225.159  1.00  0.00    -0.650 OA
BRANCH  14  16
ATOM     16  O1  UNK     1      -3.247  43.886 226.298  1.00  0.00    -0.776 OA
ATOM     17  H12 UNK     1      -3.282  44.540 225.609  1.00  0.00     0.167 HD
ENDBRANCH  14  16
ENDBRANCH  13  14
ENDBRANCH   1  13
TORSDOF 6
ENDMDL
MODEL 5
REMARK VINA RESULT:      -5.3      2.052      2.944
REMARK  6 active torsions:
REMARK  status: ('A' for Active; 'I' for Inactive)
REMARK    1  A    between atoms: C6_7  and  C7_8 
REMARK    2  A    between atoms: C7_8  and  C8_9 
REMARK    3  A    between atoms: C7_8  and  C9_11 
REMARK    4  A    between atoms: C8_9  and  N1_10 
REMARK    5  A    between atoms: C9_11  and  C10_12 
REMARK    6  A    between atoms: C10_12  and  O1_13 
ROOT
ATOM      1  C7  UNK     1      -0.548  43.056 228.665  1.00  0.00     0.056 C 
ENDROOT
BRANCH   1   2
ATOM      2  C6  UNK     1      -1.366  41.856 228.974  1.00  0.00    -0.052 A 
ATOM      3  C3  UNK     1      -0.881  40.830 229.794  1.00  0.00     0.009 A 
ATOM      4  C2  UNK     1      -1.695  39.757 230.150  1.00  0.00     0.024 A 
ATOM      5  C1  UNK     1      -3.009  39.722 229.659  1.00  0.00     0.034 A 
ATOM      6 Cl1  UNK     1      -4.090  38.374 230.084  1.00  0.00    -0.084 Cl
ATOM      7  C4  UNK     1      -3.525  40.759 228.897  1.00  0.00     0.024 A 
ATOM      8  C5  UNK     1      -2.703  41.825 228.518  1.00  0.00     0.009 A 
ENDBRANCH   1   2
BRANCH   1   9
ATOM      9  C8  UNK     1      -0.047  43.055 227.198  1.00  0.00     0.276 C 
BRANCH   9  10
ATOM     10  N1  UNK     1       1.317  42.509 227.138  1.00  0.00     0.079 N 
ATOM     11  H8  UNK     1       1.740  42.760 226.268  1.00  0.00     0.312 HD
ATOM     12  H9  UNK     1       1.858  42.883 227.892  1.00  0.00     0.312 HD
ENDBRANCH   9  10
ENDBRANCH   1   9
BRANCH   1  13
ATOM     13  C9  UNK     1       0.690  43.037 229.601  1.00  0.00     0.121 C 
BRANCH  13  14
ATOM     14  C10 UNK     1       1.101  44.396 230.143  1.00  0.00     0.140 C 
ATOM     15  O2  UNK     1       0.140  45.209 230.586  1.00  0.00    -0.650 OA
BRANCH  14  16
ATOM     16  O1  UNK     1       2.283  44.745 230.233  1.00  0.00    -0.776 OA
ATOM     17  H12 UNK     1       2.329  45.620 230.602  1.00  0.00     0.167 HD
ENDBRANCH  14  16
ENDBRANCH  13  14
ENDBRANCH   1  13
TORSDOF 6
ENDMDL
MODEL 6
REMARK VINA RESULT:      -5.0      9.614     10.732
REMARK  6 active torsions:
REMARK  status: ('A' for Active; 'I' for Inactive)
REMARK    1  A    between atoms: C6_7  and  C7_8 
REMARK    2  A    between atoms: C7_8  and  C8_9 
REMARK    3  A    between atoms: C7_8  and  C9_11 
REMARK    4  A    between atoms: C8_9  and  N1_10 
REMARK    5  A    between atoms: C9_11  and  C10_12 
REMARK    6  A    between atoms: C10_12  and  O1_13 
ROOT
ATOM      1  C7  UNK     1       1.791  38.172 237.512  1.00  0.00     0.056 C 
ENDROOT
BRANCH   1   2
ATOM      2  C6  UNK     1       1.528  37.417 236.260  1.00  0.00    -0.052 A 
ATOM      3  C3  UNK     1       1.332  36.031 236.268  1.00  0.00     0.009 A 
ATOM      4  C2  UNK     1       0.994  35.352 235.099  1.00  0.00     0.024 A 
ATOM      5  C1  UNK     1       0.863  36.088 233.912  1.00  0.00     0.034 A 
ATOM      6 Cl1  UNK     1       0.432  35.270 232.392  1.00  0.00    -0.084 Cl
ATOM      7  C4  UNK     1       0.992  37.469 233.898  1.00  0.00     0.024 A 
ATOM      8  C5  UNK     1       1.356  38.149 235.064  1.00  0.00     0.009 A 
ENDBRANCH   1   2
BRANCH   1   9
ATOM      9  C8  UNK     1       1.065  39.541 237.528  1.00  0.00     0.276 C 
BRANCH   9  10
ATOM     10  N1  UNK     1       0.255  39.661 238.749  1.00  0.00     0.079 N 
ATOM     11  H8  UNK     1       0.853  39.836 239.531  1.00  0.00     0.312 HD
ATOM     12  H9  UNK     1      -0.390  40.418 238.647  1.00  0.00     0.312 HD
ENDBRANCH   9  10
ENDBRANCH   1   9
BRANCH   1  13
ATOM     13  C9  UNK     1       3.319  38.433 237.593  1.00  0.00     0.121 C 
BRANCH  13  14
ATOM     14  C10 UNK     1       3.923  38.265 238.978  1.00  0.00     0.140 C 
ATOM     15  O2  UNK     1       4.045  37.026 239.460  1.00  0.00    -0.650 OA
BRANCH  14  16
ATOM     16  O1  UNK     1       4.346  39.220 239.638  1.00  0.00    -0.776 OA
ATOM     17  H12 UNK     1       5.201  39.477 239.311  1.00  0.00     0.167 HD
ENDBRANCH  14  16
ENDBRANCH  13  14
ENDBRANCH   1  13
TORSDOF 6
ENDMDL
MODEL 7
REMARK VINA RESULT:      -5.0      9.087     10.376
REMARK  6 active torsions:
REMARK  status: ('A' for Active; 'I' for Inactive)
REMARK    1  A    between atoms: C6_7  and  C7_8 
REMARK    2  A    between atoms: C7_8  and  C8_9 
REMARK    3  A    between atoms: C7_8  and  C9_11 
REMARK    4  A    between atoms: C8_9  and  N1_10 
REMARK    5  A    between atoms: C9_11  and  C10_12 
REMARK    6  A    between atoms: C10_12  and  O1_13 
ROOT
ATOM      1  C7  UNK     1       0.790  37.963 234.665  1.00  0.00     0.056 C 
ENDROOT
BRANCH   1   2
ATOM      2  C6  UNK     1       1.613  38.249 235.867  1.00  0.00    -0.052 A 
ATOM      3  C3  UNK     1       1.221  39.203 236.813  1.00  0.00     0.009 A 
ATOM      4  C2  UNK     1       1.956  39.393 237.982  1.00  0.00     0.024 A 
ATOM      5  C1  UNK     1       3.104  38.613 238.184  1.00  0.00     0.034 A 
ATOM      6 Cl1  UNK     1       4.078  38.815 239.659  1.00  0.00    -0.084 Cl
ATOM      7  C4  UNK     1       3.473  37.621 237.287  1.00  0.00     0.024 A 
ATOM      8  C5  UNK     1       2.751  37.445 236.102  1.00  0.00     0.009 A 
ENDBRANCH   1   2
BRANCH   1   9
ATOM      9  C8  UNK     1      -0.724  38.153 234.939  1.00  0.00     0.276 C 
BRANCH   9  10
ATOM     10  N1  UNK     1      -1.350  38.856 233.810  1.00  0.00     0.079 N 
ATOM     11  H8  UNK     1      -1.121  38.388 232.956  1.00  0.00     0.312 HD
ATOM     12  H9  UNK     1      -2.343  38.861 233.931  1.00  0.00     0.312 HD
ENDBRANCH   9  10
ENDBRANCH   1   9
BRANCH   1  13
ATOM     13  C9  UNK     1       1.029  36.480 234.272  1.00  0.00     0.121 C 
BRANCH  13  14
ATOM     14  C10 UNK     1       0.699  36.142 232.827  1.00  0.00     0.140 C 
ATOM     15  O2  UNK     1       0.703  37.136 231.936  1.00  0.00    -0.650 OA
BRANCH  14  16
ATOM     16  O1  UNK     1       0.482  34.985 232.449  1.00  0.00    -0.776 OA
ATOM     17  H12 UNK     1      -0.234  34.985 231.825  1.00  0.00     0.167 HD
ENDBRANCH  14  16
ENDBRANCH  13  14
ENDBRANCH   1  13
TORSDOF 6
ENDMDL
MODEL 8
REMARK VINA RESULT:      -5.0     10.516     11.389
REMARK  6 active torsions:
REMARK  status: ('A' for Active; 'I' for Inactive)
REMARK    1  A    between atoms: C6_7  and  C7_8 
REMARK    2  A    between atoms: C7_8  and  C8_9 
REMARK    3  A    between atoms: C7_8  and  C9_11 
REMARK    4  A    between atoms: C8_9  and  N1_10 
REMARK    5  A    between atoms: C9_11  and  C10_12 
REMARK    6  A    between atoms: C10_12  and  O1_13 
ROOT
ATOM      1  C7  UNK     1       2.724  37.872 237.642  1.00  0.00     0.056 C 
ENDROOT
BRANCH   1   2
ATOM      2  C6  UNK     1       2.567  36.549 236.985  1.00  0.00    -0.052 A 
ATOM      3  C3  UNK     1       3.336  35.445 237.371  1.00  0.00     0.009 A 
ATOM      4  C2  UNK     1       3.112  34.189 236.810  1.00  0.00     0.024 A 
ATOM      5  C1  UNK     1       2.104  34.059 235.842  1.00  0.00     0.034 A 
ATOM      6 Cl1  UNK     1       1.777  32.478 235.095  1.00  0.00    -0.084 Cl
ATOM      7  C4  UNK     1       1.292  35.128 235.493  1.00  0.00     0.024 A 
ATOM      8  C5  UNK     1       1.532  36.395 236.037  1.00  0.00     0.009 A 
ENDBRANCH   1   2
BRANCH   1   9
ATOM      9  C8  UNK     1       3.857  37.865 238.699  1.00  0.00     0.276 C 
BRANCH   9  10
ATOM     10  N1  UNK     1       4.138  39.239 239.139  1.00  0.00     0.079 N 
ATOM     11  H8  UNK     1       4.444  39.784 238.358  1.00  0.00     0.312 HD
ATOM     12  H9  UNK     1       3.306  39.642 239.522  1.00  0.00     0.312 HD
ENDBRANCH   9  10
ENDBRANCH   1   9
BRANCH   1  13
ATOM     13  C9  UNK     1       1.389  38.201 238.363  1.00  0.00     0.121 C 
BRANCH  13  14
ATOM     14  C10 UNK     1       0.736  39.505 237.933  1.00  0.00     0.140 C 
ATOM     15  O2  UNK     1      -0.191  40.033 238.736  1.00  0.00    -0.650 OA
BRANCH  14  16
ATOM     16  O1  UNK     1       1.069  40.107 236.907  1.00  0.00    -0.776 OA
ATOM     17  H12 UNK     1       1.993  40.322 236.951  1.00  0.00     0.167 HD
ENDBRANCH  14  16
ENDBRANCH  13  14
ENDBRANCH   1  13
TORSDOF 6
ENDMDL
MODEL 9
REMARK VINA RESULT:      -5.0      8.419      9.469
REMARK  6 active torsions:
REMARK  status: ('A' for Active; 'I' for Inactive)
REMARK    1  A    between atoms: C6_7  and  C7_8 
REMARK    2  A    between atoms: C7_8  and  C8_9 
REMARK    3  A    between atoms: C7_8  and  C9_11 
REMARK    4  A    between atoms: C8_9  and  N1_10 
REMARK    5  A    between atoms: C9_11  and  C10_12 
REMARK    6  A    between atoms: C10_12  and  O1_13 
ROOT
ATOM      1  C7  UNK     1       1.503  37.675 235.216  1.00  0.00     0.056 C 
ENDROOT
BRANCH   1   2
ATOM      2  C6  UNK     1       1.028  36.810 234.105  1.00  0.00    -0.052 A 
ATOM      3  C3  UNK     1       1.116  37.220 232.769  1.00  0.00     0.009 A 
ATOM      4  C2  UNK     1       0.753  36.360 231.734  1.00  0.00     0.024 A 
ATOM      5  C1  UNK     1       0.288  35.077 232.062  1.00  0.00     0.034 A 
ATOM      6 Cl1  UNK     1      -0.187  33.940 230.779  1.00  0.00    -0.084 Cl
ATOM      7  C4  UNK     1       0.254  34.633 233.376  1.00  0.00     0.024 A 
ATOM      8  C5  UNK     1       0.594  35.502 234.417  1.00  0.00     0.009 A 
ENDBRANCH   1   2
BRANCH   1   9
ATOM      9  C8  UNK     1       2.380  36.892 236.225  1.00  0.00     0.276 C 
BRANCH   9  10
ATOM     10  N1  UNK     1       3.586  37.670 236.546  1.00  0.00     0.079 N 
ATOM     11  H8  UNK     1       4.114  37.826 235.711  1.00  0.00     0.312 HD
ATOM     12  H9  UNK     1       3.319  38.549 236.941  1.00  0.00     0.312 HD
ENDBRANCH   9  10
ENDBRANCH   1   9
BRANCH   1  13
ATOM     13  C9  UNK     1       0.253  38.204 235.968  1.00  0.00     0.121 C 
BRANCH  13  14
ATOM     14  C10 UNK     1       0.554  38.979 237.241  1.00  0.00     0.140 C 
ATOM     15  O2  UNK     1       1.375  40.028 237.153  1.00  0.00    -0.650 OA
BRANCH  14  16
ATOM     16  O1  UNK     1       0.031  38.704 238.325  1.00  0.00    -0.776 OA
ATOM     17  H12 UNK     1      -0.632  38.035 238.197  1.00  0.00     0.167 HD
ENDBRANCH  14  16
ENDBRANCH  13  14
ENDBRANCH   1  13
TORSDOF 6
ENDMDL
