MODEL 1
REMARK VINA RESULT:      -5.2      0.000      0.000
REMARK  3 active torsions:
REMARK  status: ('A' for Active; 'I' for Inactive)
REMARK    1  A    between atoms: O1_7  and  C1_8 
REMARK    2  A    between atoms: O1_7  and  C3_10 
REMARK    3  A    between atoms: C1_8  and  C2_9 
ROOT
ATOM      1  F1  UNK     1       1.483  44.758 228.265  1.00  0.00    -0.171 F 
ATOM      2  F2  UNK     1       1.623  43.560 230.090  1.00  0.00    -0.171 F 
ATOM      3  C1  UNK     1       2.271  43.889 228.948  1.00  0.00     0.402 C 
ENDROOT
BRANCH   3   4
ATOM      4  O1  UNK     1       3.499  44.539 229.258  1.00  0.00    -0.260 OA
BRANCH   4   5
ATOM      5  C3  UNK     1       4.239  43.861 230.256  1.00  0.00     0.504 C 
ATOM      6  F4  UNK     1       4.716  44.794 231.118  1.00  0.00    -0.184 F 
ATOM      7  F5  UNK     1       5.315  43.272 229.680  1.00  0.00    -0.184 F 
ENDBRANCH   4   5
ENDBRANCH   3   4
BRANCH   3   8
ATOM      8  C2  UNK     1       2.506  42.661 228.096  1.00  0.00     0.368 C 
ATOM      9 Cl1  UNK     1       1.080  41.602 228.073  1.00  0.00    -0.080 Cl
ATOM     10  F3  UNK     1       2.772  43.060 226.824  1.00  0.00    -0.223 F 
ENDBRANCH   3   8
TORSDOF 3
ENDMDL
MODEL 2
REMARK VINA RESULT:      -5.2      1.005      1.921
REMARK  3 active torsions:
REMARK  status: ('A' for Active; 'I' for Inactive)
REMARK    1  A    between atoms: O1_7  and  C1_8 
REMARK    2  A    between atoms: O1_7  and  C3_10 
REMARK    3  A    between atoms: C1_8  and  C2_9 
ROOT
ATOM      1  F1  UNK     1       2.546  44.073 227.232  1.00  0.00    -0.171 F 
ATOM      2  F2  UNK     1       2.396  45.310 229.031  1.00  0.00    -0.171 F 
ATOM      3  C1  UNK     1       2.363  44.035 228.577  1.00  0.00     0.402 C 
ENDROOT
BRANCH   3   4
ATOM      4  O1  UNK     1       3.425  43.286 229.157  1.00  0.00    -0.260 OA
BRANCH   4   5
ATOM      5  C3  UNK     1       4.162  44.031 230.110  1.00  0.00     0.504 C 
ATOM      6  F4  UNK     1       5.407  43.496 230.175  1.00  0.00    -0.184 F 
ATOM      7  F5  UNK     1       3.597  43.862 231.330  1.00  0.00    -0.184 F 
ENDBRANCH   4   5
ENDBRANCH   3   4
BRANCH   3   8
ATOM      8  C2  UNK     1       1.023  43.399 228.874  1.00  0.00     0.368 C 
ATOM      9 Cl1  UNK     1       0.895  41.780 228.152  1.00  0.00    -0.080 Cl
ATOM     10  F3  UNK     1       0.886  43.286 230.222  1.00  0.00    -0.223 F 
ENDBRANCH   3   8
TORSDOF 3
ENDMDL
MODEL 3
REMARK VINA RESULT:      -5.1      1.665      3.232
REMARK  3 active torsions:
REMARK  status: ('A' for Active; 'I' for Inactive)
REMARK    1  A    between atoms: O1_7  and  C1_8 
REMARK    2  A    between atoms: O1_7  and  C3_10 
REMARK    3  A    between atoms: C1_8  and  C2_9 
ROOT
ATOM      1  F1  UNK     1       1.349  43.888 230.517  1.00  0.00    -0.171 F 
ATOM      2  F2  UNK     1       3.484  44.333 230.684  1.00  0.00    -0.171 F 
ATOM      3  C1  UNK     1       2.481  44.113 229.802  1.00  0.00     0.402 C 
ENDROOT
BRANCH   3   4
ATOM      4  O1  UNK     1       2.285  45.269 228.995  1.00  0.00    -0.260 OA
BRANCH   4   5
ATOM      5  C3  UNK     1       1.014  45.863 229.189  1.00  0.00     0.504 C 
ATOM      6  F4  UNK     1       0.190  45.395 228.218  1.00  0.00    -0.184 F 
ATOM      7  F5  UNK     1       1.122  47.200 229.003  1.00  0.00    -0.184 F 
ENDBRANCH   4   5
ENDBRANCH   3   4
BRANCH   3   8
ATOM      8  C2  UNK     1       2.776  42.899 228.950  1.00  0.00     0.368 C 
ATOM      9 Cl1  UNK     1       2.428  43.206 227.235  1.00  0.00    -0.080 Cl
ATOM     10  F3  UNK     1       4.094  42.589 229.078  1.00  0.00    -0.223 F 
ENDBRANCH   3   8
TORSDOF 3
ENDMDL
MODEL 4
REMARK VINA RESULT:      -5.0      1.980      2.404
REMARK  3 active torsions:
REMARK  status: ('A' for Active; 'I' for Inactive)
REMARK    1  A    between atoms: O1_7  and  C1_8 
REMARK    2  A    between atoms: O1_7  and  C3_10 
REMARK    3  A    between atoms: C1_8  and  C2_9 
ROOT
ATOM      1  F1  UNK     1       1.245  43.470 229.717  1.00  0.00    -0.171 F 
ATOM      2  F2  UNK     1       2.283  43.341 227.794  1.00  0.00    -0.171 F 
ATOM      3  C1  UNK     1       1.902  44.194 228.775  1.00  0.00     0.402 C 
ENDROOT
BRANCH   3   4
ATOM      4  O1  UNK     1       3.050  44.783 229.376  1.00  0.00    -0.260 OA
BRANCH   4   5
ATOM      5  C3  UNK     1       3.789  43.864 230.161  1.00  0.00     0.504 C 
ATOM      6  F4  UNK     1       3.623  44.210 231.462  1.00  0.00    -0.184 F 
ATOM      7  F5  UNK     1       5.106  44.009 229.881  1.00  0.00    -0.184 F 
ENDBRANCH   4   5
ENDBRANCH   3   4
BRANCH   3   8
ATOM      8  C2  UNK     1       0.971  45.253 228.228  1.00  0.00     0.368 C 
ATOM      9 Cl1  UNK     1       1.255  46.830 228.996  1.00  0.00    -0.080 Cl
ATOM     10  F3  UNK     1       1.189  45.374 226.891  1.00  0.00    -0.223 F 
ENDBRANCH   3   8
TORSDOF 3
ENDMDL
MODEL 5
REMARK VINA RESULT:      -4.9      2.400      3.768
REMARK  3 active torsions:
REMARK  status: ('A' for Active; 'I' for Inactive)
REMARK    1  A    between atoms: O1_7  and  C1_8 
REMARK    2  A    between atoms: O1_7  and  C3_10 
REMARK    3  A    between atoms: C1_8  and  C2_9 
ROOT
ATOM      1  F1  UNK     1       2.488  43.810 227.380  1.00  0.00    -0.171 F 
ATOM      2  F2  UNK     1       3.686  42.311 228.431  1.00  0.00    -0.171 F 
ATOM      3  C1  UNK     1       2.617  43.133 228.549  1.00  0.00     0.402 C 
ENDROOT
BRANCH   3   4
ATOM      4  O1  UNK     1       1.437  42.364 228.760  1.00  0.00    -0.260 OA
BRANCH   4   5
ATOM      5  C3  UNK     1       0.455  43.062 229.503  1.00  0.00     0.504 C 
ATOM      6  F4  UNK     1      -0.398  42.143 230.022  1.00  0.00    -0.184 F 
ATOM      7  F5  UNK     1      -0.268  43.835 228.657  1.00  0.00    -0.184 F 
ENDBRANCH   4   5
ENDBRANCH   3   4
BRANCH   3   8
ATOM      8  C2  UNK     1       2.827  44.124 229.673  1.00  0.00     0.368 C 
ATOM      9 Cl1  UNK     1       4.472  44.016 230.337  1.00  0.00    -0.080 Cl
ATOM     10  F3  UNK     1       2.636  45.379 229.186  1.00  0.00    -0.223 F 
ENDBRANCH   3   8
TORSDOF 3
ENDMDL
MODEL 6
REMARK VINA RESULT:      -4.9      1.660      2.525
REMARK  3 active torsions:
REMARK  status: ('A' for Active; 'I' for Inactive)
REMARK    1  A    between atoms: O1_7  and  C1_8 
REMARK    2  A    between atoms: O1_7  and  C3_10 
REMARK    3  A    between atoms: C1_8  and  C2_9 
ROOT
ATOM      1  F1  UNK     1       3.541  42.138 228.275  1.00  0.00    -0.171 F 
ATOM      2  F2  UNK     1       2.592  43.457 226.810  1.00  0.00    -0.171 F 
ATOM      3  C1  UNK     1       2.520  43.011 228.086  1.00  0.00     0.402 C 
ENDROOT
BRANCH   3   4
ATOM      4  O1  UNK     1       2.682  44.100 228.989  1.00  0.00    -0.260 OA
BRANCH   4   5
ATOM      5  C3  UNK     1       2.144  43.832 230.270  1.00  0.00     0.504 C 
ATOM      6  F4  UNK     1       1.172  44.750 230.507  1.00  0.00    -0.184 F 
ATOM      7  F5  UNK     1       3.108  44.032 231.201  1.00  0.00    -0.184 F 
ENDBRANCH   4   5
ENDBRANCH   3   4
BRANCH   3   8
ATOM      8  C2  UNK     1       1.209  42.296 228.327  1.00  0.00     0.368 C 
ATOM      9 Cl1  UNK     1      -0.117  43.037 227.405  1.00  0.00    -0.080 Cl
ATOM     10  F3  UNK     1       1.341  41.001 227.933  1.00  0.00    -0.223 F 
ENDBRANCH   3   8
TORSDOF 3
ENDMDL
MODEL 7
REMARK VINA RESULT:      -4.8      2.281      3.684
REMARK  3 active torsions:
REMARK  status: ('A' for Active; 'I' for Inactive)
REMARK    1  A    between atoms: O1_7  and  C1_8 
REMARK    2  A    between atoms: O1_7  and  C3_10 
REMARK    3  A    between atoms: C1_8  and  C2_9 
ROOT
ATOM      1  F1  UNK     1       2.222  45.570 228.983  1.00  0.00    -0.171 F 
ATOM      2  F2  UNK     1       2.553  44.078 227.417  1.00  0.00    -0.171 F 
ATOM      3  C1  UNK     1       2.461  44.253 228.756  1.00  0.00     0.402 C 
ENDROOT
BRANCH   3   4
ATOM      4  O1  UNK     1       1.366  43.500 229.268  1.00  0.00    -0.260 OA
BRANCH   4   5
ATOM      5  C3  UNK     1       0.136  44.196 229.183  1.00  0.00     0.504 C 
ATOM      6  F4  UNK     1      -0.737  43.589 230.025  1.00  0.00    -0.184 F 
ATOM      7  F5  UNK     1      -0.362  44.054 227.931  1.00  0.00    -0.184 F 
ENDBRANCH   4   5
ENDBRANCH   3   4
BRANCH   3   8
ATOM      8  C2  UNK     1       3.755  43.862 229.436  1.00  0.00     0.368 C 
ATOM      9 Cl1  UNK     1       3.613  43.943 231.205  1.00  0.00    -0.080 Cl
ATOM     10  F3  UNK     1       4.061  42.585 229.082  1.00  0.00    -0.223 F 
ENDBRANCH   3   8
TORSDOF 3
ENDMDL
MODEL 8
REMARK VINA RESULT:      -4.8      2.442      3.896
REMARK  3 active torsions:
REMARK  status: ('A' for Active; 'I' for Inactive)
REMARK    1  A    between atoms: O1_7  and  C1_8 
REMARK    2  A    between atoms: O1_7  and  C3_10 
REMARK    3  A    between atoms: C1_8  and  C2_9 
ROOT
ATOM      1  F1  UNK     1       1.028  45.646 229.788  1.00  0.00    -0.171 F 
ATOM      2  F2  UNK     1       0.738  44.266 228.115  1.00  0.00    -0.171 F 
ATOM      3  C1  UNK     1       1.067  44.339 229.426  1.00  0.00     0.402 C 
ENDROOT
BRANCH   3   4
ATOM      4  O1  UNK     1       0.114  43.625 230.205  1.00  0.00    -0.260 OA
BRANCH   4   5
ATOM      5  C3  UNK     1      -0.683  42.750 229.428  1.00  0.00     0.504 C 
ATOM      6  F4  UNK     1      -1.900  42.666 230.022  1.00  0.00    -0.184 F 
ATOM      7  F5  UNK     1      -0.140  41.510 229.468  1.00  0.00    -0.184 F 
ENDBRANCH   4   5
ENDBRANCH   3   4
BRANCH   3   8
ATOM      8  C2  UNK     1       2.465  43.805 229.655  1.00  0.00     0.368 C 
ATOM      9 Cl1  UNK     1       2.925  42.628 228.406  1.00  0.00    -0.080 Cl
ATOM     10  F3  UNK     1       3.338  44.846 229.615  1.00  0.00    -0.223 F 
ENDBRANCH   3   8
TORSDOF 3
ENDMDL
MODEL 9
REMARK VINA RESULT:      -4.7      2.381      2.728
REMARK  3 active torsions:
REMARK  status: ('A' for Active; 'I' for Inactive)
REMARK    1  A    between atoms: O1_7  and  C1_8 
REMARK    2  A    between atoms: O1_7  and  C3_10 
REMARK    3  A    between atoms: C1_8  and  C2_9 
ROOT
ATOM      1  F1  UNK     1      -1.037  43.235 229.949  1.00  0.00    -0.171 F 
ATOM      2  F2  UNK     1       0.726  42.072 229.378  1.00  0.00    -0.171 F 
ATOM      3  C1  UNK     1       0.223  43.327 229.454  1.00  0.00     0.402 C 
ENDROOT
BRANCH   3   4
ATOM      4  O1  UNK     1       1.005  44.108 230.350  1.00  0.00    -0.260 OA
BRANCH   4   5
ATOM      5  C3  UNK     1       2.397  43.941 230.151  1.00  0.00     0.504 C 
ATOM      6  F4  UNK     1       2.992  43.959 231.370  1.00  0.00    -0.184 F 
ATOM      7  F5  UNK     1       2.873  45.008 229.465  1.00  0.00    -0.184 F 
ENDBRANCH   4   5
ENDBRANCH   3   4
BRANCH   3   8
ATOM      8  C2  UNK     1       0.169  43.963 228.083  1.00  0.00     0.368 C 
ATOM      9 Cl1  UNK     1      -1.206  43.356 227.136  1.00  0.00    -0.080 Cl
ATOM     10  F3  UNK     1       0.034  45.308 228.233  1.00  0.00    -0.223 F 
ENDBRANCH   3   8
TORSDOF 3
ENDMDL
