MODEL 1
REMARK VINA RESULT:      -6.4      0.000      0.000
REMARK  4 active torsions:
REMARK  status: ('A' for Active; 'I' for Inactive)
REMARK    1  A    between atoms: N1_7  and  C2_10 
REMARK       I    between atoms: N1_7  and  C3_11 
REMARK    2  A    between atoms: N2_8  and  C8_16 
REMARK    3  A    between atoms: C1_9  and  C3_11 
REMARK    4  A    between atoms: C4_12  and  C11_19 
ROOT
ATOM      1  C2  UNK     1      -0.117  42.187 228.944  1.00  0.00     0.035 A 
ATOM      2  C4  UNK     1      -1.712  40.479 229.489  1.00  0.00     0.083 A 
ATOM      3  C5  UNK     1      -0.434  41.022 229.624  1.00  0.00     0.048 A 
ATOM      4  C8  UNK     1      -2.654  41.107 228.674  1.00  0.00     0.118 A 
ATOM      5  C9  UNK     1      -1.041  42.822 228.131  1.00  0.00     0.032 A 
ATOM      6  C10 UNK     1      -2.318  42.279 227.996  1.00  0.00     0.039 A 
ENDROOT
BRANCH   1   7
ATOM      7  N1  UNK     1       1.178  42.738 229.082  1.00  0.00    -0.327 N 
ATOM      8  C3  UNK     1       1.588  43.734 229.964  1.00  0.00     0.225 C 
ATOM      9  O1  UNK     1       0.897  44.316 230.794  1.00  0.00    -0.273 OA
ATOM     10  H2  UNK     1       1.880  42.345 228.459  1.00  0.00     0.169 HD
BRANCH   8  11
ATOM     11  C1  UNK     1       3.078  44.049 229.798  1.00  0.00     0.070 C 
ATOM     12  C6  UNK     1       3.787  44.094 231.151  1.00  0.00     0.019 C 
ATOM     13  C7  UNK     1       3.736  43.015 228.886  1.00  0.00     0.019 C 
ENDBRANCH   8  11
ENDBRANCH   1   7
BRANCH   2  14
ATOM     14  C11 UNK     1      -2.039  39.222 230.229  1.00  0.00     0.419 C 
ATOM     15  F1  UNK     1      -3.001  39.386 231.183  1.00  0.00    -0.166 F 
ATOM     16  F2  UNK     1      -2.502  38.223 229.422  1.00  0.00    -0.166 F 
ATOM     17  F3  UNK     1      -0.959  38.703 230.878  1.00  0.00    -0.166 F 
ENDBRANCH   2  14
BRANCH   4  18
ATOM     18  N2  UNK     1      -3.962  40.571 228.521  1.00  0.00    -0.115 N 
ATOM     19  O2  UNK     1      -4.830  40.835 229.388  1.00  0.00    -0.532 OA
ATOM     20  O3  UNK     1      -4.210  39.853 227.524  1.00  0.00    -0.532 OA
ENDBRANCH   4  18
TORSDOF 4
ENDMDL
MODEL 2
REMARK VINA RESULT:      -6.3      2.320      3.037
REMARK  4 active torsions:
REMARK  status: ('A' for Active; 'I' for Inactive)
REMARK    1  A    between atoms: N1_7  and  C2_10 
REMARK       I    between atoms: N1_7  and  C3_11 
REMARK    2  A    between atoms: N2_8  and  C8_16 
REMARK    3  A    between atoms: C1_9  and  C3_11 
REMARK    4  A    between atoms: C4_12  and  C11_19 
ROOT
ATOM      1  C2  UNK     1      -0.158  42.160 228.949  1.00  0.00     0.035 A 
ATOM      2  C4  UNK     1      -2.266  42.087 227.807  1.00  0.00     0.083 A 
ATOM      3  C5  UNK     1      -0.999  42.650 227.965  1.00  0.00     0.048 A 
ATOM      4  C8  UNK     1      -2.673  41.043 228.637  1.00  0.00     0.118 A 
ATOM      5  C9  UNK     1      -0.547  41.124 229.782  1.00  0.00     0.032 A 
ATOM      6  C10 UNK     1      -1.814  40.561 229.624  1.00  0.00     0.039 A 
ENDROOT
BRANCH   1   7
ATOM      7  N1  UNK     1       1.127  42.730 229.109  1.00  0.00    -0.327 N 
ATOM      8  C3  UNK     1       1.501  43.751 229.979  1.00  0.00     0.225 C 
ATOM      9  O1  UNK     1       0.781  44.342 230.777  1.00  0.00    -0.273 OA
ATOM     10  H2  UNK     1       1.850  42.332 228.513  1.00  0.00     0.169 HD
BRANCH   8  11
ATOM     11  C1  UNK     1       2.991  44.082 229.845  1.00  0.00     0.070 C 
ATOM     12  C6  UNK     1       3.677  44.101 231.209  1.00  0.00     0.019 C 
ATOM     13  C7  UNK     1       3.672  43.074 228.921  1.00  0.00     0.019 C 
ENDBRANCH   8  11
ENDBRANCH   1   7
BRANCH   2  14
ATOM     14  C11 UNK     1      -3.163  42.626 226.740  1.00  0.00     0.419 C 
ATOM     15  F1  UNK     1      -3.331  41.774 225.687  1.00  0.00    -0.166 F 
ATOM     16  F2  UNK     1      -4.424  42.904 227.181  1.00  0.00    -0.166 F 
ATOM     17  F3  UNK     1      -2.695  43.788 226.203  1.00  0.00    -0.166 F 
ENDBRANCH   2  14
BRANCH   4  18
ATOM     18  N2  UNK     1      -3.960  40.453 228.495  1.00  0.00    -0.115 N 
ATOM     19  O2  UNK     1      -4.134  39.588 227.604  1.00  0.00    -0.532 OA
ATOM     20  O3  UNK     1      -4.881  40.816 229.264  1.00  0.00    -0.532 OA
ENDBRANCH   4  18
TORSDOF 4
ENDMDL
MODEL 3
REMARK VINA RESULT:      -6.3      3.525      6.000
REMARK  4 active torsions:
REMARK  status: ('A' for Active; 'I' for Inactive)
REMARK    1  A    between atoms: N1_7  and  C2_10 
REMARK       I    between atoms: N1_7  and  C3_11 
REMARK    2  A    between atoms: N2_8  and  C8_16 
REMARK    3  A    between atoms: C1_9  and  C3_11 
REMARK    4  A    between atoms: C4_12  and  C11_19 
ROOT
ATOM      1  C2  UNK     1      -0.486  41.107 229.267  1.00  0.00     0.035 A 
ATOM      2  C4  UNK     1       1.037  42.917 228.866  1.00  0.00     0.083 A 
ATOM      3  C5  UNK     1       0.769  41.548 228.880  1.00  0.00     0.048 A 
ATOM      4  C8  UNK     1       0.047  43.825 229.240  1.00  0.00     0.118 A 
ATOM      5  C9  UNK     1      -1.480  41.995 229.642  1.00  0.00     0.032 A 
ATOM      6  C10 UNK     1      -1.212  43.364 229.627  1.00  0.00     0.039 A 
ENDROOT
BRANCH   1   7
ATOM      7  N1  UNK     1      -0.757  39.719 229.282  1.00  0.00    -0.327 N 
ATOM      8  C3  UNK     1      -1.280  38.966 230.330  1.00  0.00     0.225 C 
ATOM      9  O1  UNK     1      -1.609  39.373 231.440  1.00  0.00    -0.273 OA
ATOM     10  H2  UNK     1      -0.544  39.231 228.414  1.00  0.00     0.169 HD
BRANCH   8  11
ATOM     11  C1  UNK     1      -1.424  37.491 229.942  1.00  0.00     0.070 C 
ATOM     12  C6  UNK     1      -2.603  37.281 228.994  1.00  0.00     0.019 C 
ATOM     13  C7  UNK     1      -0.131  36.988 229.303  1.00  0.00     0.019 C 
ENDBRANCH   8  11
ENDBRANCH   1   7
BRANCH   2  14
ATOM     14  C11 UNK     1       2.395  43.377 228.445  1.00  0.00     0.419 C 
ATOM     15  F1  UNK     1       2.394  44.080 227.275  1.00  0.00    -0.166 F 
ATOM     16  F2  UNK     1       2.995  44.199 229.356  1.00  0.00    -0.166 F 
ATOM     17  F3  UNK     1       3.261  42.343 228.254  1.00  0.00    -0.166 F 
ENDBRANCH   2  14
BRANCH   4  18
ATOM     18  N2  UNK     1       0.297  45.225 229.232  1.00  0.00    -0.115 N 
ATOM     19  O2  UNK     1       0.553  45.800 230.317  1.00  0.00    -0.532 OA
ATOM     20  O3  UNK     1       0.255  45.842 228.142  1.00  0.00    -0.532 OA
ENDBRANCH   4  18
TORSDOF 4
ENDMDL
MODEL 4
REMARK VINA RESULT:      -6.0      1.568      1.935
REMARK  4 active torsions:
REMARK  status: ('A' for Active; 'I' for Inactive)
REMARK    1  A    between atoms: N1_7  and  C2_10 
REMARK       I    between atoms: N1_7  and  C3_11 
REMARK    2  A    between atoms: N2_8  and  C8_16 
REMARK    3  A    between atoms: C1_9  and  C3_11 
REMARK    4  A    between atoms: C4_12  and  C11_19 
ROOT
ATOM      1  C2  UNK     1      -0.676  42.886 228.031  1.00  0.00     0.035 A 
ATOM      2  C4  UNK     1      -2.662  41.567 228.299  1.00  0.00     0.083 A 
ATOM      3  C5  UNK     1      -1.399  41.949 228.751  1.00  0.00     0.048 A 
ATOM      4  C8  UNK     1      -3.184  42.127 227.132  1.00  0.00     0.118 A 
ATOM      5  C9  UNK     1      -1.180  43.451 226.871  1.00  0.00     0.032 A 
ATOM      6  C10 UNK     1      -2.443  43.069 226.419  1.00  0.00     0.039 A 
ENDROOT
BRANCH   1   7
ATOM      7  N1  UNK     1       0.604  43.274 228.490  1.00  0.00    -0.327 N 
ATOM      8  C3  UNK     1       0.905  44.131 229.546  1.00  0.00     0.225 C 
ATOM      9  O1  UNK     1       0.108  44.706 230.280  1.00  0.00    -0.273 OA
ATOM     10  H2  UNK     1       1.384  42.865 227.981  1.00  0.00     0.169 HD
BRANCH   8  11
ATOM     11  C1  UNK     1       2.418  44.292 229.722  1.00  0.00     0.070 C 
ATOM     12  C6  UNK     1       2.816  44.197 231.194  1.00  0.00     0.019 C 
ATOM     13  C7  UNK     1       3.158  43.237 228.901  1.00  0.00     0.019 C 
ENDBRANCH   8  11
ENDBRANCH   1   7
BRANCH   2  14
ATOM     14  C11 UNK     1      -3.431  40.555 229.086  1.00  0.00     0.419 C 
ATOM     15  F1  UNK     1      -2.834  40.215 230.265  1.00  0.00    -0.166 F 
ATOM     16  F2  UNK     1      -4.685  40.971 229.426  1.00  0.00    -0.166 F 
ATOM     17  F3  UNK     1      -3.600  39.385 228.408  1.00  0.00    -0.166 F 
ENDBRANCH   2  14
BRANCH   4  18
ATOM     18  N2  UNK     1      -4.470  41.753 226.653  1.00  0.00    -0.115 N 
ATOM     19  O2  UNK     1      -5.457  42.468 226.945  1.00  0.00    -0.532 OA
ATOM     20  O3  UNK     1      -4.577  40.720 225.951  1.00  0.00    -0.532 OA
ENDBRANCH   4  18
TORSDOF 4
ENDMDL
MODEL 5
REMARK VINA RESULT:      -6.0      3.151      3.860
REMARK  4 active torsions:
REMARK  status: ('A' for Active; 'I' for Inactive)
REMARK    1  A    between atoms: N1_7  and  C2_10 
REMARK       I    between atoms: N1_7  and  C3_11 
REMARK    2  A    between atoms: N2_8  and  C8_16 
REMARK    3  A    between atoms: C1_9  and  C3_11 
REMARK    4  A    between atoms: C4_12  and  C11_19 
ROOT
ATOM      1  C2  UNK     1      -0.997  42.979 227.925  1.00  0.00     0.035 A 
ATOM      2  C4  UNK     1      -2.666  42.316 226.334  1.00  0.00     0.083 A 
ATOM      3  C5  UNK     1      -1.469  42.973 226.623  1.00  0.00     0.048 A 
ATOM      4  C8  UNK     1      -3.374  41.677 227.352  1.00  0.00     0.118 A 
ATOM      5  C9  UNK     1      -1.687  42.349 228.947  1.00  0.00     0.032 A 
ATOM      6  C10 UNK     1      -2.884  41.693 228.658  1.00  0.00     0.039 A 
ENDROOT
BRANCH   1   7
ATOM      7  N1  UNK     1       0.217  43.644 228.217  1.00  0.00    -0.327 N 
ATOM      8  C3  UNK     1       1.499  43.101 228.243  1.00  0.00     0.225 C 
ATOM      9  O1  UNK     1       1.813  41.938 228.010  1.00  0.00    -0.273 OA
ATOM     10  H2  UNK     1       0.123  44.636 228.426  1.00  0.00     0.169 HD
BRANCH   8  11
ATOM     11  C1  UNK     1       2.547  44.157 228.605  1.00  0.00     0.070 C 
ATOM     12  C6  UNK     1       1.887  45.469 229.028  1.00  0.00     0.019 C 
ATOM     13  C7  UNK     1       3.456  43.637 229.717  1.00  0.00     0.019 C 
ENDBRANCH   8  11
ENDBRANCH   1   7
BRANCH   2  14
ATOM     14  C11 UNK     1      -3.163  42.318 224.924  1.00  0.00     0.419 C 
ATOM     15  F1  UNK     1      -4.333  43.002 224.760  1.00  0.00    -0.166 F 
ATOM     16  F2  UNK     1      -2.290  42.886 224.042  1.00  0.00    -0.166 F 
ATOM     17  F3  UNK     1      -3.401  41.062 224.453  1.00  0.00    -0.166 F 
ENDBRANCH   2  14
BRANCH   4  18
ATOM     18  N2  UNK     1      -4.595  41.001 227.081  1.00  0.00    -0.115 N 
ATOM     19  O2  UNK     1      -4.565  39.775 226.821  1.00  0.00    -0.532 OA
ATOM     20  O3  UNK     1      -5.666  41.652 227.111  1.00  0.00    -0.532 OA
ENDBRANCH   4  18
TORSDOF 4
ENDMDL
MODEL 6
REMARK VINA RESULT:      -5.9      8.337     10.273
REMARK  4 active torsions:
REMARK  status: ('A' for Active; 'I' for Inactive)
REMARK    1  A    between atoms: N1_7  and  C2_10 
REMARK       I    between atoms: N1_7  and  C3_11 
REMARK    2  A    between atoms: N2_8  and  C8_16 
REMARK    3  A    between atoms: C1_9  and  C3_11 
REMARK    4  A    between atoms: C4_12  and  C11_19 
ROOT
ATOM      1  C2  UNK     1       1.448  36.200 235.663  1.00  0.00     0.035 A 
ATOM      2  C4  UNK     1       1.995  37.804 237.362  1.00  0.00     0.083 A 
ATOM      3  C5  UNK     1       1.358  37.490 236.161  1.00  0.00     0.048 A 
ATOM      4  C8  UNK     1       2.715  36.824 238.047  1.00  0.00     0.118 A 
ATOM      5  C9  UNK     1       2.159  35.217 236.330  1.00  0.00     0.032 A 
ATOM      6  C10 UNK     1       2.796  35.531 237.531  1.00  0.00     0.039 A 
ENDROOT
BRANCH   1   7
ATOM      7  N1  UNK     1       0.802  35.882 234.446  1.00  0.00    -0.327 N 
ATOM      8  C3  UNK     1       0.935  36.527 233.219  1.00  0.00     0.225 C 
ATOM      9  O1  UNK     1       1.649  37.492 232.966  1.00  0.00    -0.273 OA
ATOM     10  H2  UNK     1       0.173  35.083 234.490  1.00  0.00     0.169 HD
BRANCH   8  11
ATOM     11  C1  UNK     1       0.061  35.872 232.145  1.00  0.00     0.070 C 
ATOM     12  C6  UNK     1       0.587  36.177 230.743  1.00  0.00     0.019 C 
ATOM     13  C7  UNK     1      -0.008  34.363 232.371  1.00  0.00     0.019 C 
ENDBRANCH   8  11
ENDBRANCH   1   7
BRANCH   2  14
ATOM     14  C11 UNK     1       1.889  39.199 237.887  1.00  0.00     0.419 C 
ATOM     15  F1  UNK     1       1.163  39.294 239.039  1.00  0.00    -0.166 F 
ATOM     16  F2  UNK     1       3.097  39.763 238.177  1.00  0.00    -0.166 F 
ATOM     17  F3  UNK     1       1.289  40.045 237.003  1.00  0.00    -0.166 F 
ENDBRANCH   2  14
BRANCH   4  18
ATOM     18  N2  UNK     1       3.372  37.122 239.272  1.00  0.00    -0.115 N 
ATOM     19  O2  UNK     1       2.741  36.984 240.347  1.00  0.00    -0.532 OA
ATOM     20  O3  UNK     1       4.563  37.511 239.241  1.00  0.00    -0.532 OA
ENDBRANCH   4  18
TORSDOF 4
ENDMDL
MODEL 7
REMARK VINA RESULT:      -5.9     10.052     11.647
REMARK  4 active torsions:
REMARK  status: ('A' for Active; 'I' for Inactive)
REMARK    1  A    between atoms: N1_7  and  C2_10 
REMARK       I    between atoms: N1_7  and  C3_11 
REMARK    2  A    between atoms: N2_8  and  C8_16 
REMARK    3  A    between atoms: C1_9  and  C3_11 
REMARK    4  A    between atoms: C4_12  and  C11_19 
ROOT
ATOM      1  C2  UNK     1       2.691  35.437 236.938  1.00  0.00     0.035 A 
ATOM      2  C4  UNK     1       2.808  37.543 238.082  1.00  0.00     0.083 A 
ATOM      3  C5  UNK     1       3.340  36.278 237.826  1.00  0.00     0.048 A 
ATOM      4  C8  UNK     1       1.634  37.947 237.446  1.00  0.00     0.118 A 
ATOM      5  C9  UNK     1       1.524  35.823 236.299  1.00  0.00     0.032 A 
ATOM      6  C10 UNK     1       0.993  37.087 236.555  1.00  0.00     0.039 A 
ENDROOT
BRANCH   1   7
ATOM      7  N1  UNK     1       3.230  34.155 236.679  1.00  0.00    -0.327 N 
ATOM      8  C3  UNK     1       2.889  32.951 237.288  1.00  0.00     0.225 C 
ATOM      9  O1  UNK     1       2.048  32.778 238.164  1.00  0.00    -0.273 OA
ATOM     10  H2  UNK     1       3.947  34.130 235.956  1.00  0.00     0.169 HD
BRANCH   8  11
ATOM     11  C1  UNK     1       3.708  31.786 236.722  1.00  0.00     0.070 C 
ATOM     12  C6  UNK     1       4.406  31.009 237.837  1.00  0.00     0.019 C 
ATOM     13  C7  UNK     1       2.808  30.858 235.909  1.00  0.00     0.019 C 
ENDBRANCH   8  11
ENDBRANCH   1   7
BRANCH   2  14
ATOM     14  C11 UNK     1       3.520  38.439 239.043  1.00  0.00     0.419 C 
ATOM     15  F1  UNK     1       3.841  39.657 238.516  1.00  0.00    -0.166 F 
ATOM     16  F2  UNK     1       2.795  38.715 240.166  1.00  0.00    -0.166 F 
ATOM     17  F3  UNK     1       4.694  37.906 239.483  1.00  0.00    -0.166 F 
ENDBRANCH   2  14
BRANCH   4  18
ATOM     18  N2  UNK     1       1.074  39.231 237.691  1.00  0.00    -0.115 N 
ATOM     19  O2  UNK     1       0.348  39.392 238.701  1.00  0.00    -0.532 OA
ATOM     20  O3  UNK     1       1.324  40.163 236.891  1.00  0.00    -0.532 OA
ENDBRANCH   4  18
TORSDOF 4
ENDMDL
MODEL 8
REMARK VINA RESULT:      -5.8      7.991      9.861
REMARK  4 active torsions:
REMARK  status: ('A' for Active; 'I' for Inactive)
REMARK    1  A    between atoms: N1_7  and  C2_10 
REMARK       I    between atoms: N1_7  and  C3_11 
REMARK    2  A    between atoms: N2_8  and  C8_16 
REMARK    3  A    between atoms: C1_9  and  C3_11 
REMARK    4  A    between atoms: C4_12  and  C11_19 
ROOT
ATOM      1  C2  UNK     1       1.367  36.709 235.103  1.00  0.00     0.035 A 
ATOM      2  C4  UNK     1       1.907  37.882 237.125  1.00  0.00     0.083 A 
ATOM      3  C5  UNK     1       1.440  37.898 235.810  1.00  0.00     0.048 A 
ATOM      4  C8  UNK     1       2.295  36.678 237.713  1.00  0.00     0.118 A 
ATOM      5  C9  UNK     1       1.749  35.505 235.672  1.00  0.00     0.032 A 
ATOM      6  C10 UNK     1       2.215  35.490 236.987  1.00  0.00     0.039 A 
ENDROOT
BRANCH   1   7
ATOM      7  N1  UNK     1       0.894  36.725 233.770  1.00  0.00    -0.327 N 
ATOM      8  C3  UNK     1      -0.427  36.818 233.339  1.00  0.00     0.225 C 
ATOM      9  O1  UNK     1      -1.429  36.909 234.041  1.00  0.00    -0.273 OA
ATOM     10  H2  UNK     1       1.617  36.667 233.057  1.00  0.00     0.169 HD
BRANCH   8  11
ATOM     11  C1  UNK     1      -0.519  36.803 231.810  1.00  0.00     0.070 C 
ATOM     12  C6  UNK     1      -1.062  38.127 231.276  1.00  0.00     0.019 C 
ATOM     13  C7  UNK     1       0.853  36.508 231.204  1.00  0.00     0.019 C 
ENDBRANCH   8  11
ENDBRANCH   1   7
BRANCH   2  14
ATOM     14  C11 UNK     1       1.980  39.172 237.876  1.00  0.00     0.419 C 
ATOM     15  F1  UNK     1       3.255  39.559 238.172  1.00  0.00    -0.166 F 
ATOM     16  F2  UNK     1       1.435  40.225 237.200  1.00  0.00    -0.166 F 
ATOM     17  F3  UNK     1       1.324  39.120 239.069  1.00  0.00    -0.166 F 
ENDBRANCH   2  14
BRANCH   4  18
ATOM     18  N2  UNK     1       2.773  36.638 239.052  1.00  0.00    -0.115 N 
ATOM     19  O2  UNK     1       1.976  36.335 239.971  1.00  0.00    -0.532 OA
ATOM     20  O3  UNK     1       3.978  36.905 239.272  1.00  0.00    -0.532 OA
ENDBRANCH   4  18
TORSDOF 4
ENDMDL
MODEL 9
REMARK VINA RESULT:      -5.7      5.814      6.909
REMARK  4 active torsions:
REMARK  status: ('A' for Active; 'I' for Inactive)
REMARK    1  A    between atoms: N1_7  and  C2_10 
REMARK       I    between atoms: N1_7  and  C3_11 
REMARK    2  A    between atoms: N2_8  and  C8_16 
REMARK    3  A    between atoms: C1_9  and  C3_11 
REMARK    4  A    between atoms: C4_12  and  C11_19 
ROOT
ATOM      1  C2  UNK     1       0.398  38.109 234.476  1.00  0.00     0.035 A 
ATOM      2  C4  UNK     1      -1.148  38.032 232.643  1.00  0.00     0.083 A 
ATOM      3  C5  UNK     1      -0.832  38.446 233.938  1.00  0.00     0.048 A 
ATOM      4  C8  UNK     1      -0.229  37.285 231.907  1.00  0.00     0.118 A 
ATOM      5  C9  UNK     1       1.321  37.367 233.759  1.00  0.00     0.032 A 
ATOM      6  C10 UNK     1       1.006  36.953 232.464  1.00  0.00     0.039 A 
ENDROOT
BRANCH   1   7
ATOM      7  N1  UNK     1       0.718  38.529 235.789  1.00  0.00    -0.327 N 
ATOM      8  C3  UNK     1       0.552  37.817 236.973  1.00  0.00     0.225 C 
ATOM      9  O1  UNK     1       0.101  36.682 237.096  1.00  0.00    -0.273 OA
ATOM     10  H2  UNK     1       1.118  39.462 235.854  1.00  0.00     0.169 HD
BRANCH   8  11
ATOM     11  C1  UNK     1       1.023  38.628 238.184  1.00  0.00     0.070 C 
ATOM     12  C6  UNK     1       2.445  39.150 237.981  1.00  0.00     0.019 C 
ATOM     13  C7  UNK     1       0.063  39.787 238.446  1.00  0.00     0.019 C 
ENDBRANCH   8  11
ENDBRANCH   1   7
BRANCH   2  14
ATOM     14  C11 UNK     1      -2.479  38.404 232.075  1.00  0.00     0.419 C 
ATOM     15  F1  UNK     1      -3.225  37.330 231.685  1.00  0.00    -0.166 F 
ATOM     16  F2  UNK     1      -3.271  39.090 232.951  1.00  0.00    -0.166 F 
ATOM     17  F3  UNK     1      -2.373  39.199 230.973  1.00  0.00    -0.166 F 
ENDBRANCH   2  14
BRANCH   4  18
ATOM     18  N2  UNK     1      -0.528  36.852 230.586  1.00  0.00    -0.115 N 
ATOM     19  O2  UNK     1      -0.236  37.599 229.622  1.00  0.00    -0.532 OA
ATOM     20  O3  UNK     1      -1.075  35.736 230.424  1.00  0.00    -0.532 OA
ENDBRANCH   4  18
TORSDOF 4
ENDMDL
