MODEL 1
REMARK VINA RESULT:      -6.8      0.000      0.000
REMARK  2 active torsions:
REMARK  status: ('A' for Active; 'I' for Inactive)
REMARK    1  A    between atoms: C1_4  and  C3_6 
REMARK    2  A    between atoms: C1_4  and  C4_7 
ROOT
ATOM      1  O1  UNK     1       1.341  44.507 231.295  1.00  0.00    -0.272 OA
ATOM      2  O2  UNK     1       4.141  42.058 228.596  1.00  0.00    -0.273 OA
ATOM      3  N1  UNK     1       2.719  43.315 229.902  1.00  0.00    -0.297 N 
ATOM      4  C1  UNK     1       0.818  44.583 228.922  1.00  0.00     0.068 C 
ATOM      5  C2  UNK     1       1.787  44.677 227.722  1.00  0.00     0.033 C 
ATOM      6  C5  UNK     1       2.478  43.347 227.461  1.00  0.00     0.105 C 
ATOM      7  C6  UNK     1       1.641  44.163 230.150  1.00  0.00     0.237 C 
ATOM      8  C7  UNK     1       3.205  42.853 228.684  1.00  0.00     0.224 C 
ATOM      9  H7  UNK     1       3.224  42.997 230.725  1.00  0.00     0.171 HD
ENDROOT
BRANCH   4  10
ATOM     10  C3  UNK     1       0.255  45.995 229.208  1.00  0.00     0.020 C 
ATOM     11  C8  UNK     1       1.243  47.070 228.802  1.00  0.00     0.006 C 
ENDBRANCH   4  10
BRANCH   4  12
ATOM     12  C4  UNK     1      -0.363  43.635 228.641  1.00  0.00    -0.040 A 
ATOM     13  C9  UNK     1      -0.829  42.798 229.650  1.00  0.00     0.008 A 
ATOM     14  C11 UNK     1      -1.897  41.939 229.396  1.00  0.00     0.001 A 
ATOM     15  C13 UNK     1      -2.495  41.920 228.136  1.00  0.00     0.000 A 
ATOM     16  C12 UNK     1      -2.023  42.762 227.129  1.00  0.00     0.001 A 
ATOM     17  C10 UNK     1      -0.953  43.622 227.383  1.00  0.00     0.008 A 
ENDBRANCH   4  12
TORSDOF 2
ENDMDL
MODEL 2
REMARK VINA RESULT:      -6.3      9.401     10.450
REMARK  2 active torsions:
REMARK  status: ('A' for Active; 'I' for Inactive)
REMARK    1  A    between atoms: C1_4  and  C3_6 
REMARK    2  A    between atoms: C1_4  and  C4_7 
ROOT
ATOM      1  O1  UNK     1      -0.448  36.708 238.033  1.00  0.00    -0.272 OA
ATOM      2  O2  UNK     1       3.624  34.620 238.457  1.00  0.00    -0.273 OA
ATOM      3  N1  UNK     1       1.609  35.709 238.215  1.00  0.00    -0.297 N 
ATOM      4  C1  UNK     1       1.275  37.482 236.502  1.00  0.00     0.068 C 
ATOM      5  C2  UNK     1       2.776  37.724 236.781  1.00  0.00     0.033 C 
ATOM      6  C5  UNK     1       3.542  36.413 236.878  1.00  0.00     0.105 C 
ATOM      7  C6  UNK     1       0.722  36.628 237.655  1.00  0.00     0.237 C 
ATOM      8  C7  UNK     1       2.954  35.507 237.928  1.00  0.00     0.224 C 
ATOM      9  H7  UNK     1       1.219  35.111 238.938  1.00  0.00     0.171 HD
ENDROOT
BRANCH   4  10
ATOM     10  C3  UNK     1       0.543  38.843 236.548  1.00  0.00     0.020 C 
ATOM     11  C8  UNK     1       1.150  39.756 237.594  1.00  0.00     0.006 C 
ENDBRANCH   4  10
BRANCH   4  12
ATOM     12  C4  UNK     1       1.037  36.845 235.121  1.00  0.00    -0.040 A 
ATOM     13  C9  UNK     1       1.295  37.581 233.969  1.00  0.00     0.008 A 
ATOM     14  C11 UNK     1       1.079  37.004 232.718  1.00  0.00     0.001 A 
ATOM     15  C13 UNK     1       0.606  35.695 232.624  1.00  0.00     0.000 A 
ATOM     16  C12 UNK     1       0.349  34.963 233.783  1.00  0.00     0.001 A 
ATOM     17  C10 UNK     1       0.565  35.540 235.035  1.00  0.00     0.008 A 
ENDBRANCH   4  12
TORSDOF 2
ENDMDL
MODEL 3
REMARK VINA RESULT:      -5.9      9.390     10.870
REMARK  2 active torsions:
REMARK  status: ('A' for Active; 'I' for Inactive)
REMARK    1  A    between atoms: C1_4  and  C3_6 
REMARK    2  A    between atoms: C1_4  and  C4_7 
ROOT
ATOM      1  O1  UNK     1       4.132  37.511 236.736  1.00  0.00    -0.272 OA
ATOM      2  O2  UNK     1       0.460  39.750 238.358  1.00  0.00    -0.273 OA
ATOM      3  N1  UNK     1       2.272  38.577 237.553  1.00  0.00    -0.297 N 
ATOM      4  C1  UNK     1       2.066  36.228 236.761  1.00  0.00     0.068 C 
ATOM      5  C2  UNK     1       0.964  36.193 237.845  1.00  0.00     0.033 C 
ATOM      6  C5  UNK     1       0.108  37.449 237.807  1.00  0.00     0.105 C 
ATOM      7  C6  UNK     1       2.934  37.470 237.024  1.00  0.00     0.237 C 
ATOM      8  C7  UNK     1       0.945  38.694 237.952  1.00  0.00     0.224 C 
ATOM      9  H7  UNK     1       2.841  39.411 237.671  1.00  0.00     0.171 HD
ENDROOT
BRANCH   4  10
ATOM     10  C3  UNK     1       2.972  34.988 236.945  1.00  0.00     0.020 C 
ATOM     11  C8  UNK     1       3.036  34.568 238.399  1.00  0.00     0.006 C 
ENDBRANCH   4  10
BRANCH   4  12
ATOM     12  C4  UNK     1       1.481  36.199 235.337  1.00  0.00    -0.040 A 
ATOM     13  C9  UNK     1       1.601  37.319 234.520  1.00  0.00     0.008 A 
ATOM     14  C11 UNK     1       1.071  37.292 233.230  1.00  0.00     0.001 A 
ATOM     15  C13 UNK     1       0.424  36.149 232.765  1.00  0.00     0.000 A 
ATOM     16  C12 UNK     1       0.307  35.029 233.589  1.00  0.00     0.001 A 
ATOM     17  C10 UNK     1       0.837  35.055 234.880  1.00  0.00     0.008 A 
ENDBRANCH   4  12
TORSDOF 2
ENDMDL
MODEL 4
REMARK VINA RESULT:      -5.5     11.057     12.301
REMARK  2 active torsions:
REMARK  status: ('A' for Active; 'I' for Inactive)
REMARK    1  A    between atoms: C1_4  and  C3_6 
REMARK    2  A    between atoms: C1_4  and  C4_7 
ROOT
ATOM      1  O1  UNK     1      -0.197  37.187 237.819  1.00  0.00    -0.272 OA
ATOM      2  O2  UNK     1       3.293  38.662 240.420  1.00  0.00    -0.273 OA
ATOM      3  N1  UNK     1       1.581  37.913 239.073  1.00  0.00    -0.297 N 
ATOM      4  C1  UNK     1       2.018  36.577 237.021  1.00  0.00     0.068 C 
ATOM      5  C2  UNK     1       3.308  37.428 237.008  1.00  0.00     0.033 C 
ATOM      6  C5  UNK     1       3.912  37.543 238.399  1.00  0.00     0.105 C 
ATOM      7  C6  UNK     1       1.024  37.257 237.976  1.00  0.00     0.237 C 
ATOM      8  C7  UNK     1       2.922  38.107 239.386  1.00  0.00     0.224 C 
ATOM      9  H7  UNK     1       0.916  38.313 239.728  1.00  0.00     0.171 HD
ENDROOT
BRANCH   4  10
ATOM     10  C3  UNK     1       1.393  36.614 235.607  1.00  0.00     0.020 C 
ATOM     11  C8  UNK     1       1.707  37.918 234.904  1.00  0.00     0.006 C 
ENDBRANCH   4  10
BRANCH   4  12
ATOM     12  C4  UNK     1       2.295  35.109 237.395  1.00  0.00    -0.040 A 
ATOM     13  C9  UNK     1       3.096  34.327 236.569  1.00  0.00     0.008 A 
ATOM     14  C11 UNK     1       3.346  32.997 236.907  1.00  0.00     0.001 A 
ATOM     15  C13 UNK     1       2.796  32.457 238.068  1.00  0.00     0.000 A 
ATOM     16  C12 UNK     1       1.994  33.246 238.893  1.00  0.00     0.001 A 
ATOM     17  C10 UNK     1       1.742  34.577 238.554  1.00  0.00     0.008 A 
ENDBRANCH   4  12
TORSDOF 2
ENDMDL
MODEL 5
REMARK VINA RESULT:      -5.4      9.982     11.446
REMARK  2 active torsions:
REMARK  status: ('A' for Active; 'I' for Inactive)
REMARK    1  A    between atoms: C1_4  and  C3_6 
REMARK    2  A    between atoms: C1_4  and  C4_7 
ROOT
ATOM      1  O1  UNK     1       1.726  38.968 235.549  1.00  0.00    -0.272 OA
ATOM      2  O2  UNK     1      -1.860  36.314 234.444  1.00  0.00    -0.273 OA
ATOM      3  N1  UNK     1      -0.077  37.639 235.054  1.00  0.00    -0.297 N 
ATOM      4  C1  UNK     1       0.802  37.663 237.380  1.00  0.00     0.068 C 
ATOM      5  C2  UNK     1      -0.680  37.373 237.708  1.00  0.00     0.033 C 
ATOM      6  C5  UNK     1      -1.266  36.337 236.760  1.00  0.00     0.105 C 
ATOM      7  C6  UNK     1       0.865  38.174 235.932  1.00  0.00     0.237 C 
ATOM      8  C7  UNK     1      -1.121  36.760 235.321  1.00  0.00     0.224 C 
ATOM      9  H7  UNK     1       0.007  37.939 234.087  1.00  0.00     0.171 HD
ENDROOT
BRANCH   4  10
ATOM     10  C3  UNK     1       1.289  38.812 238.293  1.00  0.00     0.020 C 
ATOM     11  C8  UNK     1       0.174  39.800 238.570  1.00  0.00     0.006 C 
ENDBRANCH   4  10
BRANCH   4  12
ATOM     12  C4  UNK     1       1.700  36.435 237.619  1.00  0.00    -0.040 A 
ATOM     13  C9  UNK     1       2.393  35.871 236.553  1.00  0.00     0.008 A 
ATOM     14  C11 UNK     1       3.206  34.758 236.769  1.00  0.00     0.001 A 
ATOM     15  C13 UNK     1       3.323  34.217 238.049  1.00  0.00     0.000 A 
ATOM     16  C12 UNK     1       2.626  34.788 239.113  1.00  0.00     0.001 A 
ATOM     17  C10 UNK     1       1.812  35.900 238.898  1.00  0.00     0.008 A 
ENDBRANCH   4  12
TORSDOF 2
ENDMDL
MODEL 6
REMARK VINA RESULT:      -5.4      9.066     10.857
REMARK  2 active torsions:
REMARK  status: ('A' for Active; 'I' for Inactive)
REMARK    1  A    between atoms: C1_4  and  C3_6 
REMARK    2  A    between atoms: C1_4  and  C4_7 
ROOT
ATOM      1  O1  UNK     1      -1.354  35.678 236.983  1.00  0.00    -0.272 OA
ATOM      2  O2  UNK     1      -1.755  38.794 233.628  1.00  0.00    -0.273 OA
ATOM      3  N1  UNK     1      -1.501  37.218 235.290  1.00  0.00    -0.297 N 
ATOM      4  C1  UNK     1       0.731  36.309 235.903  1.00  0.00     0.068 C 
ATOM      5  C2  UNK     1       1.003  36.567 234.403  1.00  0.00     0.033 C 
ATOM      6  C5  UNK     1       0.442  37.909 233.960  1.00  0.00     0.105 C 
ATOM      7  C6  UNK     1      -0.792  36.343 236.110  1.00  0.00     0.237 C 
ATOM      8  C7  UNK     1      -1.033  38.015 234.251  1.00  0.00     0.224 C 
ATOM      9  H7  UNK     1      -2.499  37.276 235.470  1.00  0.00     0.171 HD
ENDROOT
BRANCH   4  10
ATOM     10  C3  UNK     1       1.210  34.880 236.249  1.00  0.00     0.020 C 
ATOM     11  C8  UNK     1       1.072  33.954 235.057  1.00  0.00     0.006 C 
ENDBRANCH   4  10
BRANCH   4  12
ATOM     12  C4  UNK     1       1.478  37.307 236.808  1.00  0.00    -0.040 A 
ATOM     13  C9  UNK     1       2.870  37.331 236.805  1.00  0.00     0.008 A 
ATOM     14  C11 UNK     1       3.546  38.234 237.625  1.00  0.00     0.001 A 
ATOM     15  C13 UNK     1       2.830  39.108 238.442  1.00  0.00     0.000 A 
ATOM     16  C12 UNK     1       1.435  39.079 238.439  1.00  0.00     0.001 A 
ATOM     17  C10 UNK     1       0.758  38.175 237.620  1.00  0.00     0.008 A 
ENDBRANCH   4  12
TORSDOF 2
ENDMDL
MODEL 7
REMARK VINA RESULT:      -5.3     10.583     11.962
REMARK  2 active torsions:
REMARK  status: ('A' for Active; 'I' for Inactive)
REMARK    1  A    between atoms: C1_4  and  C3_6 
REMARK    2  A    between atoms: C1_4  and  C4_7 
ROOT
ATOM      1  O1  UNK     1       1.720  37.865 235.232  1.00  0.00    -0.272 OA
ATOM      2  O2  UNK     1      -1.863  36.714 237.871  1.00  0.00    -0.273 OA
ATOM      3  N1  UNK     1      -0.031  37.268 236.588  1.00  0.00    -0.297 N 
ATOM      4  C1  UNK     1       2.192  36.216 236.956  1.00  0.00     0.068 C 
ATOM      5  C2  UNK     1       1.684  36.172 238.415  1.00  0.00     0.033 C 
ATOM      6  C5  UNK     1       0.230  35.731 238.482  1.00  0.00     0.105 C 
ATOM      7  C6  UNK     1       1.302  37.205 236.185  1.00  0.00     0.237 C 
ATOM      8  C7  UNK     1      -0.656  36.617 237.646  1.00  0.00     0.224 C 
ATOM      9  H7  UNK     1      -0.626  37.882 236.038  1.00  0.00     0.171 HD
ENDROOT
BRANCH   4  10
ATOM     10  C3  UNK     1       3.626  36.795 236.955  1.00  0.00     0.020 C 
ATOM     11  C8  UNK     1       3.873  37.646 238.185  1.00  0.00     0.006 C 
ENDBRANCH   4  10
BRANCH   4  12
ATOM     12  C4  UNK     1       2.230  34.819 236.311  1.00  0.00    -0.040 A 
ATOM     13  C9  UNK     1       3.212  33.910 236.692  1.00  0.00     0.008 A 
ATOM     14  C11 UNK     1       3.246  32.644 236.108  1.00  0.00     0.001 A 
ATOM     15  C13 UNK     1       2.298  32.293 235.147  1.00  0.00     0.000 A 
ATOM     16  C12 UNK     1       1.316  33.208 234.769  1.00  0.00     0.001 A 
ATOM     17  C10 UNK     1       1.282  34.476 235.353  1.00  0.00     0.008 A 
ENDBRANCH   4  12
TORSDOF 2
ENDMDL
MODEL 8
REMARK VINA RESULT:      -5.0      8.072      9.868
REMARK  2 active torsions:
REMARK  status: ('A' for Active; 'I' for Inactive)
REMARK    1  A    between atoms: C1_4  and  C3_6 
REMARK    2  A    between atoms: C1_4  and  C4_7 
ROOT
ATOM      1  O1  UNK     1      -1.419  34.781 234.268  1.00  0.00    -0.272 OA
ATOM      2  O2  UNK     1      -4.451  38.193 233.732  1.00  0.00    -0.273 OA
ATOM      3  N1  UNK     1      -2.890  36.517 233.979  1.00  0.00    -0.297 N 
ATOM      4  C1  UNK     1      -0.448  36.990 233.967  1.00  0.00     0.068 C 
ATOM      5  C2  UNK     1      -0.895  38.119 233.011  1.00  0.00     0.033 C 
ATOM      6  C5  UNK     1      -2.151  38.812 233.520  1.00  0.00     0.105 C 
ATOM      7  C6  UNK     1      -1.605  35.983 234.068  1.00  0.00     0.237 C 
ATOM      8  C7  UNK     1      -3.274  37.831 233.734  1.00  0.00     0.224 C 
ATOM      9  H7  UNK     1      -3.649  35.854 234.103  1.00  0.00     0.171 HD
ENDROOT
BRANCH   4  10
ATOM     10  C3  UNK     1       0.748  36.250 233.323  1.00  0.00     0.020 C 
ATOM     11  C8  UNK     1       0.992  36.732 231.908  1.00  0.00     0.006 C 
ENDBRANCH   4  10
BRANCH   4  12
ATOM     12  C4  UNK     1      -0.007  37.531 235.339  1.00  0.00    -0.040 A 
ATOM     13  C9  UNK     1      -0.688  37.138 236.486  1.00  0.00     0.008 A 
ATOM     14  C11 UNK     1      -0.289  37.629 237.729  1.00  0.00     0.001 A 
ATOM     15  C13 UNK     1       0.789  38.509 237.819  1.00  0.00     0.000 A 
ATOM     16  C12 UNK     1       1.468  38.899 236.665  1.00  0.00     0.001 A 
ATOM     17  C10 UNK     1       1.069  38.409 235.421  1.00  0.00     0.008 A 
ENDBRANCH   4  12
TORSDOF 2
ENDMDL
MODEL 9
REMARK VINA RESULT:      -5.0      9.261     10.995
REMARK  2 active torsions:
REMARK  status: ('A' for Active; 'I' for Inactive)
REMARK    1  A    between atoms: C1_4  and  C3_6 
REMARK    2  A    between atoms: C1_4  and  C4_7 
ROOT
ATOM      1  O1  UNK     1       0.634  34.247 233.530  1.00  0.00    -0.272 OA
ATOM      2  O2  UNK     1      -2.653  34.779 236.698  1.00  0.00    -0.273 OA
ATOM      3  N1  UNK     1      -1.001  34.570 235.106  1.00  0.00    -0.297 N 
ATOM      4  C1  UNK     1       0.524  36.453 234.546  1.00  0.00     0.068 C 
ATOM      5  C2  UNK     1      -0.725  37.285 234.917  1.00  0.00     0.033 C 
ATOM      6  C5  UNK     1      -1.398  36.745 236.170  1.00  0.00     0.105 C 
ATOM      7  C6  UNK     1       0.065  35.003 234.320  1.00  0.00     0.237 C 
ATOM      8  C7  UNK     1      -1.763  35.291 236.019  1.00  0.00     0.224 C 
ATOM      9  H7  UNK     1      -1.262  33.595 234.991  1.00  0.00     0.171 HD
ENDROOT
BRANCH   4  10
ATOM     10  C3  UNK     1       1.077  36.975 233.199  1.00  0.00     0.020 C 
ATOM     11  C8  UNK     1      -0.047  37.308 232.239  1.00  0.00     0.006 C 
ENDBRANCH   4  10
BRANCH   4  12
ATOM     12  C4  UNK     1       1.634  36.569 235.607  1.00  0.00    -0.040 A 
ATOM     13  C9  UNK     1       2.129  35.419 236.215  1.00  0.00     0.008 A 
ATOM     14  C11 UNK     1       3.134  35.524 237.176  1.00  0.00     0.001 A 
ATOM     15  C13 UNK     1       3.639  36.776 237.524  1.00  0.00     0.000 A 
ATOM     16  C12 UNK     1       3.140  37.924 236.911  1.00  0.00     0.001 A 
ATOM     17  C10 UNK     1       2.134  37.820 235.949  1.00  0.00     0.008 A 
ENDBRANCH   4  12
TORSDOF 2
ENDMDL
