MODEL 1
REMARK VINA RESULT:      -6.1      0.000      0.000
REMARK  9 active torsions:
REMARK  status: ('A' for Active; 'I' for Inactive)
REMARK    1  A    between atoms: O1_2  and  C9_14 
REMARK    2  A    between atoms: O1_2  and  C20_25 
REMARK    3  A    between atoms: O2_3  and  C21_26 
REMARK    4  A    between atoms: N1_4  and  C5_10 
REMARK    5  A    between atoms: N2_5  and  C6_11 
REMARK    6  A    between atoms: C5_10  and  C7_12 
REMARK    7  A    between atoms: C5_10  and  C8_13 
REMARK    8  A    between atoms: C6_11  and  C9_14 
REMARK    9  A    between atoms: C20_25  and  C21_26 
ROOT
ATOM      1  C5  UNK     1      -2.556  38.714 231.602  1.00  0.00     0.289 C 
ENDROOT
BRANCH   1   2
ATOM      2  N1  UNK     1      -2.302  39.470 230.377  1.00  0.00     0.105 N 
ATOM      3  C1  UNK     1      -3.515  40.165 229.932  1.00  0.00     0.304 C 
ATOM      4  C3  UNK     1      -3.250  40.958 228.647  1.00  0.00     0.302 C 
ATOM      5  N2  UNK     1      -2.153  41.915 228.841  1.00  0.00     0.094 N 
ATOM      6  C4  UNK     1      -0.940  41.220 229.288  1.00  0.00     0.302 C 
ATOM      7  C2  UNK     1      -1.205  40.427 230.571  1.00  0.00     0.304 C 
BRANCH   5   8
ATOM      8  C6  UNK     1      -1.898  42.668 227.614  1.00  0.00     0.298 C 
BRANCH   8   9
ATOM      9  C9  UNK     1      -0.443  43.105 227.546  1.00  0.00     0.198 C 
BRANCH   9  10
ATOM     10  O1  UNK     1      -0.356  44.466 227.947  1.00  0.00    -0.387 OA
BRANCH  10  11
ATOM     11  C20 UNK     1       0.989  44.923 227.951  1.00  0.00     0.193 C 
BRANCH  11  12
ATOM     12  C21 UNK     1       1.092  46.151 228.835  1.00  0.00     0.190 C 
BRANCH  12  13
ATOM     13  O2  UNK     1       1.527  47.254 228.050  1.00  0.00    -0.399 OA
ATOM     14  H27 UNK     1       2.224  47.712 228.549  1.00  0.00     0.209 HD
ENDBRANCH  12  13
ENDBRANCH  11  12
ENDBRANCH  10  11
ENDBRANCH   9  10
ENDBRANCH   8   9
ENDBRANCH   5   8
ENDBRANCH   1   2
BRANCH   1  15
ATOM     15  C7  UNK     1      -3.619  37.642 231.412  1.00  0.00    -0.021 A 
ATOM     16  C10 UNK     1      -3.745  37.041 230.175  1.00  0.00     0.011 A 
ATOM     17  C14 UNK     1      -4.721  36.059 230.002  1.00  0.00     0.024 A 
ATOM     18  C18 UNK     1      -5.547  35.699 231.066  1.00  0.00     0.034 A 
ATOM     19 Cl1  UNK     1      -6.750  34.488 230.850  1.00  0.00    -0.084 Cl
ATOM     20  C15 UNK     1      -5.399  36.321 232.305  1.00  0.00     0.024 A 
ATOM     21  C11 UNK     1      -4.424  37.304 232.480  1.00  0.00     0.011 A 
ENDBRANCH   1  15
BRANCH   1  22
ATOM     22  C8  UNK     1      -1.281  38.147 232.209  1.00  0.00    -0.021 A 
ATOM     23  C12 UNK     1      -0.428  37.416 231.407  1.00  0.00     0.010 A 
ATOM     24  C16 UNK     1       0.742  36.898 231.963  1.00  0.00     0.001 A 
ATOM     25  C19 UNK     1       1.032  37.121 233.309  1.00  0.00     0.000 A 
ATOM     26  C17 UNK     1       0.154  37.863 234.098  1.00  0.00     0.001 A 
ATOM     27  C13 UNK     1      -1.015  38.382 233.543  1.00  0.00     0.010 A 
ENDBRANCH   1  22
TORSDOF 9
ENDMDL
MODEL 2
REMARK VINA RESULT:      -6.0      3.356      5.069
REMARK  9 active torsions:
REMARK  status: ('A' for Active; 'I' for Inactive)
REMARK    1  A    between atoms: O1_2  and  C9_14 
REMARK    2  A    between atoms: O1_2  and  C20_25 
REMARK    3  A    between atoms: O2_3  and  C21_26 
REMARK    4  A    between atoms: N1_4  and  C5_10 
REMARK    5  A    between atoms: N2_5  and  C6_11 
REMARK    6  A    between atoms: C5_10  and  C7_12 
REMARK    7  A    between atoms: C5_10  and  C8_13 
REMARK    8  A    between atoms: C6_11  and  C9_14 
REMARK    9  A    between atoms: C20_25  and  C21_26 
ROOT
ATOM      1  C5  UNK     1       0.167  36.519 232.793  1.00  0.00     0.289 C 
ENDROOT
BRANCH   1   2
ATOM      2  N1  UNK     1      -0.724  37.301 231.937  1.00  0.00     0.105 N 
ATOM      3  C1  UNK     1      -1.138  38.539 232.608  1.00  0.00     0.304 C 
ATOM      4  C3  UNK     1      -2.072  39.359 231.711  1.00  0.00     0.302 C 
ATOM      5  N2  UNK     1      -1.428  39.664 230.427  1.00  0.00     0.094 N 
ATOM      6  C4  UNK     1      -1.012  38.426 229.756  1.00  0.00     0.302 C 
ATOM      7  C2  UNK     1      -0.079  37.606 230.653  1.00  0.00     0.304 C 
BRANCH   5   8
ATOM      8  C6  UNK     1      -2.321  40.443 229.571  1.00  0.00     0.298 C 
BRANCH   8   9
ATOM      9  C9  UNK     1      -1.846  41.884 229.472  1.00  0.00     0.198 C 
BRANCH   9  10
ATOM     10  O1  UNK     1      -0.661  42.028 230.244  1.00  0.00    -0.387 OA
BRANCH  10  11
ATOM     11  C20 UNK     1       0.323  42.784 229.552  1.00  0.00     0.193 C 
BRANCH  11  12
ATOM     12  C21 UNK     1       0.142  44.253 229.884  1.00  0.00     0.190 C 
BRANCH  12  13
ATOM     13  O2  UNK     1       1.069  44.616 230.900  1.00  0.00    -0.399 OA
ATOM     14  H27 UNK     1       1.949  44.664 230.491  1.00  0.00     0.209 HD
ENDBRANCH  12  13
ENDBRANCH  11  12
ENDBRANCH  10  11
ENDBRANCH   9  10
ENDBRANCH   8   9
ENDBRANCH   5   8
ENDBRANCH   1   2
BRANCH   1  15
ATOM     15  C7  UNK     1       0.332  37.136 234.174  1.00  0.00    -0.021 A 
ATOM     16  C10 UNK     1       1.497  37.818 234.465  1.00  0.00     0.011 A 
ATOM     17  C14 UNK     1       1.648  38.381 235.732  1.00  0.00     0.024 A 
ATOM     18  C18 UNK     1       0.633  38.253 236.679  1.00  0.00     0.034 A 
ATOM     19 Cl1  UNK     1       0.821  38.949 238.241  1.00  0.00    -0.084 Cl
ATOM     20  C15 UNK     1      -0.535  37.560 236.360  1.00  0.00     0.024 A 
ATOM     21  C11 UNK     1      -0.686  36.995 235.093  1.00  0.00     0.011 A 
ENDBRANCH   1  15
BRANCH   1  22
ATOM     22  C8  UNK     1      -0.241  35.055 232.871  1.00  0.00    -0.021 A 
ATOM     23  C12 UNK     1       0.624  34.152 233.455  1.00  0.00     0.010 A 
ATOM     24  C16 UNK     1       0.250  32.810 233.528  1.00  0.00     0.001 A 
ATOM     25  C19 UNK     1      -0.981  32.401 233.014  1.00  0.00     0.000 A 
ATOM     26  C17 UNK     1      -1.837  33.333 232.428  1.00  0.00     0.001 A 
ATOM     27  C13 UNK     1      -1.463  34.675 232.355  1.00  0.00     0.010 A 
ENDBRANCH   1  22
TORSDOF 9
ENDMDL
MODEL 3
REMARK VINA RESULT:      -6.0      2.762      4.054
REMARK  9 active torsions:
REMARK  status: ('A' for Active; 'I' for Inactive)
REMARK    1  A    between atoms: O1_2  and  C9_14 
REMARK    2  A    between atoms: O1_2  and  C20_25 
REMARK    3  A    between atoms: O2_3  and  C21_26 
REMARK    4  A    between atoms: N1_4  and  C5_10 
REMARK    5  A    between atoms: N2_5  and  C6_11 
REMARK    6  A    between atoms: C5_10  and  C7_12 
REMARK    7  A    between atoms: C5_10  and  C8_13 
REMARK    8  A    between atoms: C6_11  and  C9_14 
REMARK    9  A    between atoms: C20_25  and  C21_26 
ROOT
ATOM      1  C5  UNK     1      -3.284  40.516 229.343  1.00  0.00     0.289 C 
ENDROOT
BRANCH   1   2
ATOM      2  N1  UNK     1      -2.057  41.159 228.875  1.00  0.00     0.105 N 
ATOM      3  C1  UNK     1      -2.363  42.241 227.932  1.00  0.00     0.304 C 
ATOM      4  C3  UNK     1      -1.077  42.916 227.441  1.00  0.00     0.302 C 
ATOM      5  N2  UNK     1      -0.292  43.428 228.571  1.00  0.00     0.094 N 
ATOM      6  C4  UNK     1       0.012  42.347 229.515  1.00  0.00     0.302 C 
ATOM      7  C2  UNK     1      -1.272  41.672 230.005  1.00  0.00     0.304 C 
BRANCH   5   8
ATOM      8  C6  UNK     1       0.936  44.069 228.101  1.00  0.00     0.298 C 
BRANCH   8   9
ATOM      9  C9  UNK     1       1.968  43.024 227.707  1.00  0.00     0.198 C 
BRANCH   9  10
ATOM     10  O1  UNK     1       3.172  43.282 228.416  1.00  0.00    -0.387 OA
BRANCH  10  11
ATOM     11  C20 UNK     1       3.007  44.329 229.362  1.00  0.00     0.193 C 
BRANCH  11  12
ATOM     12  C21 UNK     1       4.131  44.261 230.377  1.00  0.00     0.190 C 
BRANCH  12  13
ATOM     13  O2  UNK     1       3.575  44.251 231.686  1.00  0.00    -0.399 OA
ATOM     14  H27 UNK     1       3.785  45.106 232.100  1.00  0.00     0.209 HD
ENDBRANCH  12  13
ENDBRANCH  11  12
ENDBRANCH  10  11
ENDBRANCH   9  10
ENDBRANCH   8   9
ENDBRANCH   5   8
ENDBRANCH   1   2
BRANCH   1  15
ATOM     15  C7  UNK     1      -4.225  40.162 228.201  1.00  0.00    -0.021 A 
ATOM     16  C10 UNK     1      -5.259  41.024 227.898  1.00  0.00     0.011 A 
ATOM     17  C14 UNK     1      -6.122  40.698 226.851  1.00  0.00     0.024 A 
ATOM     18  C18 UNK     1      -5.932  39.519 226.131  1.00  0.00     0.034 A 
ATOM     19 Cl1  UNK     1      -6.998  39.118 224.841  1.00  0.00    -0.084 Cl
ATOM     20  C15 UNK     1      -4.879  38.665 226.456  1.00  0.00     0.024 A 
ATOM     21  C11 UNK     1      -4.016  38.990 227.504  1.00  0.00     0.011 A 
ENDBRANCH   1  15
BRANCH   1  22
ATOM     22  C8  UNK     1      -3.005  39.319 230.240  1.00  0.00    -0.021 A 
ATOM     23  C12 UNK     1      -1.916  38.518 229.964  1.00  0.00     0.010 A 
ATOM     24  C16 UNK     1      -1.659  37.421 230.787  1.00  0.00     0.001 A 
ATOM     25  C19 UNK     1      -2.499  37.148 231.867  1.00  0.00     0.000 A 
ATOM     26  C17 UNK     1      -3.594  37.972 232.124  1.00  0.00     0.001 A 
ATOM     27  C13 UNK     1      -3.851  39.069 231.302  1.00  0.00     0.010 A 
ENDBRANCH   1  22
TORSDOF 9
ENDMDL
MODEL 4
REMARK VINA RESULT:      -6.0      5.017      7.753
REMARK  9 active torsions:
REMARK  status: ('A' for Active; 'I' for Inactive)
REMARK    1  A    between atoms: O1_2  and  C9_14 
REMARK    2  A    between atoms: O1_2  and  C20_25 
REMARK    3  A    between atoms: O2_3  and  C21_26 
REMARK    4  A    between atoms: N1_4  and  C5_10 
REMARK    5  A    between atoms: N2_5  and  C6_11 
REMARK    6  A    between atoms: C5_10  and  C7_12 
REMARK    7  A    between atoms: C5_10  and  C8_13 
REMARK    8  A    between atoms: C6_11  and  C9_14 
REMARK    9  A    between atoms: C20_25  and  C21_26 
ROOT
ATOM      1  C5  UNK     1       1.144  36.472 237.375  1.00  0.00     0.289 C 
ENDROOT
BRANCH   1   2
ATOM      2  N1  UNK     1       0.767  37.147 236.134  1.00  0.00     0.105 N 
ATOM      3  C1  UNK     1       1.345  36.463 234.972  1.00  0.00     0.304 C 
ATOM      4  C3  UNK     1       0.949  37.170 233.670  1.00  0.00     0.302 C 
ATOM      5  N2  UNK     1      -0.511  37.251 233.543  1.00  0.00     0.094 N 
ATOM      6  C4  UNK     1      -1.090  37.934 234.706  1.00  0.00     0.302 C 
ATOM      7  C2  UNK     1      -0.694  37.227 236.007  1.00  0.00     0.304 C 
BRANCH   5   8
ATOM      8  C6  UNK     1      -0.887  37.929 232.303  1.00  0.00     0.298 C 
BRANCH   8   9
ATOM      9  C9  UNK     1      -1.872  39.053 232.584  1.00  0.00     0.198 C 
BRANCH   9  10
ATOM     10  O1  UNK     1      -2.525  39.402 231.371  1.00  0.00    -0.387 OA
BRANCH  10  11
ATOM     11  C20 UNK     1      -1.594  39.596 230.315  1.00  0.00     0.193 C 
BRANCH  11  12
ATOM     12  C21 UNK     1      -1.859  40.939 229.663  1.00  0.00     0.190 C 
BRANCH  12  13
ATOM     13  O2  UNK     1      -1.257  41.962 230.446  1.00  0.00    -0.399 OA
ATOM     14  H27 UNK     1      -0.410  41.618 230.777  1.00  0.00     0.209 HD
ENDBRANCH  12  13
ENDBRANCH  11  12
ENDBRANCH  10  11
ENDBRANCH   9  10
ENDBRANCH   8   9
ENDBRANCH   5   8
ENDBRANCH   1   2
BRANCH   1  15
ATOM     15  C7  UNK     1       1.636  35.052 237.135  1.00  0.00    -0.021 A 
ATOM     16  C10 UNK     1       2.953  34.857 236.770  1.00  0.00     0.011 A 
ATOM     17  C14 UNK     1       3.404  33.555 236.549  1.00  0.00     0.024 A 
ATOM     18  C18 UNK     1       2.529  32.478 236.698  1.00  0.00     0.034 A 
ATOM     19 Cl1  UNK     1       3.086  30.874 236.425  1.00  0.00    -0.084 Cl
ATOM     20  C15 UNK     1       1.203  32.703 237.068  1.00  0.00     0.024 A 
ATOM     21  C11 UNK     1       0.752  34.005 237.288  1.00  0.00     0.011 A 
ENDBRANCH   1  15
BRANCH   1  22
ATOM     22  C8  UNK     1       2.133  37.284 238.199  1.00  0.00    -0.021 A 
ATOM     23  C12 UNK     1       2.645  38.450 237.668  1.00  0.00     0.010 A 
ATOM     24  C16 UNK     1       3.550  39.195 238.425  1.00  0.00     0.001 A 
ATOM     25  C19 UNK     1       3.924  38.755 239.695  1.00  0.00     0.000 A 
ATOM     26  C17 UNK     1       3.393  37.573 240.208  1.00  0.00     0.001 A 
ATOM     27  C13 UNK     1       2.488  36.828 239.453  1.00  0.00     0.010 A 
ENDBRANCH   1  22
TORSDOF 9
ENDMDL
MODEL 5
REMARK VINA RESULT:      -6.0      6.191      8.724
REMARK  9 active torsions:
REMARK  status: ('A' for Active; 'I' for Inactive)
REMARK    1  A    between atoms: O1_2  and  C9_14 
REMARK    2  A    between atoms: O1_2  and  C20_25 
REMARK    3  A    between atoms: O2_3  and  C21_26 
REMARK    4  A    between atoms: N1_4  and  C5_10 
REMARK    5  A    between atoms: N2_5  and  C6_11 
REMARK    6  A    between atoms: C5_10  and  C7_12 
REMARK    7  A    between atoms: C5_10  and  C8_13 
REMARK    8  A    between atoms: C6_11  and  C9_14 
REMARK    9  A    between atoms: C20_25  and  C21_26 
ROOT
ATOM      1  C5  UNK     1      -0.130  35.213 234.734  1.00  0.00     0.289 C 
ENDROOT
BRANCH   1   2
ATOM      2  N1  UNK     1       0.369  36.054 235.820  1.00  0.00     0.105 N 
ATOM      3  C1  UNK     1       1.120  37.198 235.291  1.00  0.00     0.304 C 
ATOM      4  C3  UNK     1       1.643  38.082 236.429  1.00  0.00     0.302 C 
ATOM      5  N2  UNK     1       0.540  38.543 237.281  1.00  0.00     0.094 N 
ATOM      6  C4  UNK     1      -0.212  37.399 237.810  1.00  0.00     0.302 C 
ATOM      7  C2  UNK     1      -0.735  36.516 236.672  1.00  0.00     0.304 C 
BRANCH   5   8
ATOM      8  C6  UNK     1       1.041  39.383 238.368  1.00  0.00     0.298 C 
BRANCH   8   9
ATOM      9  C9  UNK     1       2.520  39.125 238.606  1.00  0.00     0.198 C 
BRANCH   9  10
ATOM     10  O1  UNK     1       2.691  38.635 239.930  1.00  0.00    -0.387 OA
BRANCH  10  11
ATOM     11  C20 UNK     1       3.632  37.572 239.975  1.00  0.00     0.193 C 
BRANCH  11  12
ATOM     12  C21 UNK     1       2.938  36.281 239.584  1.00  0.00     0.190 C 
BRANCH  12  13
ATOM     13  O2  UNK     1       3.604  35.718 238.460  1.00  0.00    -0.399 OA
ATOM     14  H27 UNK     1       3.005  35.788 237.698  1.00  0.00     0.209 HD
ENDBRANCH  12  13
ENDBRANCH  11  12
ENDBRANCH  10  11
ENDBRANCH   9  10
ENDBRANCH   8   9
ENDBRANCH   5   8
ENDBRANCH   1   2
BRANCH   1  15
ATOM     15  C7  UNK     1      -0.215  35.962 233.413  1.00  0.00    -0.021 A 
ATOM     16  C10 UNK     1      -1.418  36.532 233.046  1.00  0.00     0.011 A 
ATOM     17  C14 UNK     1      -1.495  37.217 231.833  1.00  0.00     0.024 A 
ATOM     18  C18 UNK     1      -0.370  37.319 231.015  1.00  0.00     0.034 A 
ATOM     19 Cl1  UNK     1      -0.467  38.165 229.520  1.00  0.00    -0.084 Cl
ATOM     20  C15 UNK     1       0.833  36.735 231.409  1.00  0.00     0.024 A 
ATOM     21  C11 UNK     1       0.911  36.048 232.622  1.00  0.00     0.011 A 
ENDBRANCH   1  15
BRANCH   1  22
ATOM     22  C8  UNK     1       0.652  33.914 234.600  1.00  0.00    -0.021 A 
ATOM     23  C12 UNK     1       0.292  33.017 233.615  1.00  0.00     0.010 A 
ATOM     24  C16 UNK     1       1.010  31.827 233.491  1.00  0.00     0.001 A 
ATOM     25  C19 UNK     1       2.071  31.561 234.357  1.00  0.00     0.000 A 
ATOM     26  C17 UNK     1       2.414  32.483 235.344  1.00  0.00     0.001 A 
ATOM     27  C13 UNK     1       1.697  33.672 235.468  1.00  0.00     0.010 A 
ENDBRANCH   1  22
TORSDOF 9
ENDMDL
MODEL 6
REMARK VINA RESULT:      -5.9      5.350      8.277
REMARK  9 active torsions:
REMARK  status: ('A' for Active; 'I' for Inactive)
REMARK    1  A    between atoms: O1_2  and  C9_14 
REMARK    2  A    between atoms: O1_2  and  C20_25 
REMARK    3  A    between atoms: O2_3  and  C21_26 
REMARK    4  A    between atoms: N1_4  and  C5_10 
REMARK    5  A    between atoms: N2_5  and  C6_11 
REMARK    6  A    between atoms: C5_10  and  C7_12 
REMARK    7  A    between atoms: C5_10  and  C8_13 
REMARK    8  A    between atoms: C6_11  and  C9_14 
REMARK    9  A    between atoms: C20_25  and  C21_26 
ROOT
ATOM      1  C5  UNK     1       1.242  35.497 236.444  1.00  0.00     0.289 C 
ENDROOT
BRANCH   1   2
ATOM      2  N1  UNK     1       1.218  35.575 234.984  1.00  0.00     0.105 N 
ATOM      3  C1  UNK     1       0.139  34.745 234.435  1.00  0.00     0.304 C 
ATOM      4  C3  UNK     1       0.113  34.828 232.905  1.00  0.00     0.302 C 
ATOM      5  N2  UNK     1      -0.033  36.219 232.459  1.00  0.00     0.094 N 
ATOM      6  C4  UNK     1       1.045  37.049 233.009  1.00  0.00     0.302 C 
ATOM      7  C2  UNK     1       1.071  36.967 234.539  1.00  0.00     0.304 C 
BRANCH   5   8
ATOM      8  C6  UNK     1      -0.054  36.296 230.999  1.00  0.00     0.298 C 
BRANCH   8   9
ATOM      9  C9  UNK     1      -0.394  37.706 230.542  1.00  0.00     0.198 C 
BRANCH   9  10
ATOM     10  O1  UNK     1      -1.778  37.938 230.769  1.00  0.00    -0.387 OA
BRANCH  10  11
ATOM     11  C20 UNK     1      -1.996  39.166 231.449  1.00  0.00     0.193 C 
BRANCH  11  12
ATOM     12  C21 UNK     1      -2.584  38.876 232.817  1.00  0.00     0.190 C 
BRANCH  12  13
ATOM     13  O2  UNK     1      -1.613  39.172 233.812  1.00  0.00    -0.399 OA
ATOM     14  H27 UNK     1      -1.771  40.083 234.115  1.00  0.00     0.209 HD
ENDBRANCH  12  13
ENDBRANCH  11  12
ENDBRANCH  10  11
ENDBRANCH   9  10
ENDBRANCH   8   9
ENDBRANCH   5   8
ENDBRANCH   1   2
BRANCH   1  15
ATOM     15  C7  UNK     1       2.064  34.319 236.947  1.00  0.00    -0.021 A 
ATOM     16  C10 UNK     1       2.004  33.989 238.286  1.00  0.00     0.011 A 
ATOM     17  C14 UNK     1       2.760  32.910 238.747  1.00  0.00     0.024 A 
ATOM     18  C18 UNK     1       3.557  32.186 237.861  1.00  0.00     0.034 A 
ATOM     19 Cl1  UNK     1       4.488  30.857 238.431  1.00  0.00    -0.084 Cl
ATOM     20  C15 UNK     1       3.600  32.541 236.513  1.00  0.00     0.024 A 
ATOM     21  C11 UNK     1       2.845  33.620 236.051  1.00  0.00     0.011 A 
ENDBRANCH   1  15
BRANCH   1  22
ATOM     22  C8  UNK     1       1.673  36.806 237.088  1.00  0.00    -0.021 A 
ATOM     23  C12 UNK     1       2.994  37.195 236.991  1.00  0.00     0.010 A 
ATOM     24  C16 UNK     1       3.388  38.396 237.580  1.00  0.00     0.001 A 
ATOM     25  C19 UNK     1       2.454  39.181 238.255  1.00  0.00     0.000 A 
ATOM     26  C17 UNK     1       1.125  38.766 238.340  1.00  0.00     0.001 A 
ATOM     27  C13 UNK     1       0.730  37.566 237.751  1.00  0.00     0.010 A 
ENDBRANCH   1  22
TORSDOF 9
ENDMDL
MODEL 7
REMARK VINA RESULT:      -5.8      5.939      8.550
REMARK  9 active torsions:
REMARK  status: ('A' for Active; 'I' for Inactive)
REMARK    1  A    between atoms: O1_2  and  C9_14 
REMARK    2  A    between atoms: O1_2  and  C20_25 
REMARK    3  A    between atoms: O2_3  and  C21_26 
REMARK    4  A    between atoms: N1_4  and  C5_10 
REMARK    5  A    between atoms: N2_5  and  C6_11 
REMARK    6  A    between atoms: C5_10  and  C7_12 
REMARK    7  A    between atoms: C5_10  and  C8_13 
REMARK    8  A    between atoms: C6_11  and  C9_14 
REMARK    9  A    between atoms: C20_25  and  C21_26 
ROOT
ATOM      1  C5  UNK     1       1.337  35.426 236.573  1.00  0.00     0.289 C 
ENDROOT
BRANCH   1   2
ATOM      2  N1  UNK     1       1.148  35.567 235.131  1.00  0.00     0.105 N 
ATOM      3  C1  UNK     1      -0.132  34.984 234.713  1.00  0.00     0.304 C 
ATOM      4  C3  UNK     1      -0.332  35.132 233.201  1.00  0.00     0.302 C 
ATOM      5  N2  UNK     1      -0.255  36.543 232.799  1.00  0.00     0.094 N 
ATOM      6  C4  UNK     1       1.025  37.125 233.218  1.00  0.00     0.302 C 
ATOM      7  C2  UNK     1       1.224  36.977 234.730  1.00  0.00     0.304 C 
BRANCH   5   8
ATOM      8  C6  UNK     1      -0.442  36.682 231.356  1.00  0.00     0.298 C 
BRANCH   8   9
ATOM      9  C9  UNK     1       0.823  36.283 230.611  1.00  0.00     0.198 C 
BRANCH   9  10
ATOM     10  O1  UNK     1       0.745  36.779 229.281  1.00  0.00    -0.387 OA
BRANCH  10  11
ATOM     11  C20 UNK     1      -0.512  36.486 228.688  1.00  0.00     0.193 C 
BRANCH  11  12
ATOM     12  C21 UNK     1      -0.283  35.843 227.334  1.00  0.00     0.190 C 
BRANCH  12  13
ATOM     13  O2  UNK     1       0.994  36.234 226.844  1.00  0.00    -0.399 OA
ATOM     14  H27 UNK     1       1.163  37.139 227.157  1.00  0.00     0.209 HD
ENDBRANCH  12  13
ENDBRANCH  11  12
ENDBRANCH  10  11
ENDBRANCH   9  10
ENDBRANCH   8   9
ENDBRANCH   5   8
ENDBRANCH   1   2
BRANCH   1  15
ATOM     15  C7  UNK     1       2.166  34.201 236.932  1.00  0.00    -0.021 A 
ATOM     16  C10 UNK     1       2.302  33.855 238.262  1.00  0.00     0.011 A 
ATOM     17  C14 UNK     1       3.064  32.733 238.590  1.00  0.00     0.024 A 
ATOM     18  C18 UNK     1       3.671  31.982 237.584  1.00  0.00     0.034 A 
ATOM     19 Cl1  UNK     1       4.610  30.599 237.990  1.00  0.00    -0.084 Cl
ATOM     20  C15 UNK     1       3.518  32.352 236.248  1.00  0.00     0.024 A 
ATOM     21  C11 UNK     1       2.757  33.475 235.919  1.00  0.00     0.011 A 
ENDBRANCH   1  15
BRANCH   1  22
ATOM     22  C8  UNK     1       1.890  36.691 237.213  1.00  0.00    -0.021 A 
ATOM     23  C12 UNK     1       1.036  37.503 237.931  1.00  0.00     0.010 A 
ATOM     24  C16 UNK     1       1.543  38.663 238.519  1.00  0.00     0.001 A 
ATOM     25  C19 UNK     1       2.892  38.985 238.373  1.00  0.00     0.000 A 
ATOM     26  C17 UNK     1       3.734  38.149 237.641  1.00  0.00     0.001 A 
ATOM     27  C13 UNK     1       3.228  36.989 237.054  1.00  0.00     0.010 A 
ENDBRANCH   1  22
TORSDOF 9
ENDMDL
MODEL 8
REMARK VINA RESULT:      -5.7      2.402      4.432
REMARK  9 active torsions:
REMARK  status: ('A' for Active; 'I' for Inactive)
REMARK    1  A    between atoms: O1_2  and  C9_14 
REMARK    2  A    between atoms: O1_2  and  C20_25 
REMARK    3  A    between atoms: O2_3  and  C21_26 
REMARK    4  A    between atoms: N1_4  and  C5_10 
REMARK    5  A    between atoms: N2_5  and  C6_11 
REMARK    6  A    between atoms: C5_10  and  C7_12 
REMARK    7  A    between atoms: C5_10  and  C8_13 
REMARK    8  A    between atoms: C6_11  and  C9_14 
REMARK    9  A    between atoms: C20_25  and  C21_26 
ROOT
ATOM      1  C5  UNK     1      -2.597  37.602 231.924  1.00  0.00     0.289 C 
ENDROOT
BRANCH   1   2
ATOM      2  N1  UNK     1      -2.624  38.928 231.309  1.00  0.00     0.105 N 
ATOM      3  C1  UNK     1      -1.323  39.254 230.715  1.00  0.00     0.304 C 
ATOM      4  C3  UNK     1      -1.350  40.644 230.069  1.00  0.00     0.302 C 
ATOM      5  N2  UNK     1      -2.411  40.729 229.058  1.00  0.00     0.094 N 
ATOM      6  C4  UNK     1      -3.713  40.402 229.652  1.00  0.00     0.302 C 
ATOM      7  C2  UNK     1      -3.685  39.012 230.297  1.00  0.00     0.304 C 
BRANCH   5   8
ATOM      8  C6  UNK     1      -2.439  42.057 228.446  1.00  0.00     0.298 C 
BRANCH   8   9
ATOM      9  C9  UNK     1      -1.113  42.770 228.654  1.00  0.00     0.198 C 
BRANCH   9  10
ATOM     10  O1  UNK     1      -0.354  42.683 227.455  1.00  0.00    -0.387 OA
BRANCH  10  11
ATOM     11  C20 UNK     1       0.922  43.290 227.600  1.00  0.00     0.193 C 
BRANCH  11  12
ATOM     12  C21 UNK     1       0.739  44.780 227.814  1.00  0.00     0.190 C 
BRANCH  12  13
ATOM     13  O2  UNK     1       1.387  45.484 226.762  1.00  0.00    -0.399 OA
ATOM     14  H27 UNK     1       2.214  45.850 227.120  1.00  0.00     0.209 HD
ENDBRANCH  12  13
ENDBRANCH  11  12
ENDBRANCH  10  11
ENDBRANCH   9  10
ENDBRANCH   8   9
ENDBRANCH   5   8
ENDBRANCH   1   2
BRANCH   1  15
ATOM     15  C7  UNK     1      -1.412  37.422 232.862  1.00  0.00    -0.021 A 
ATOM     16  C10 UNK     1      -1.232  38.327 233.889  1.00  0.00     0.011 A 
ATOM     17  C14 UNK     1      -0.144  38.163 234.747  1.00  0.00     0.024 A 
ATOM     18  C18 UNK     1       0.737  37.098 234.562  1.00  0.00     0.034 A 
ATOM     19 Cl1  UNK     1       2.078  36.896 235.621  1.00  0.00    -0.084 Cl
ATOM     20  C15 UNK     1       0.532  36.197 233.517  1.00  0.00     0.024 A 
ATOM     21  C11 UNK     1      -0.555  36.361 232.657  1.00  0.00     0.011 A 
ENDBRANCH   1  15
BRANCH   1  22
ATOM     22  C8  UNK     1      -3.914  37.248 232.600  1.00  0.00    -0.021 A 
ATOM     23  C12 UNK     1      -4.561  36.086 232.233  1.00  0.00     0.010 A 
ATOM     24  C16 UNK     1      -5.768  35.762 232.853  1.00  0.00     0.001 A 
ATOM     25  C19 UNK     1      -6.301  36.607 233.826  1.00  0.00     0.000 A 
ATOM     26  C17 UNK     1      -5.627  37.776 234.179  1.00  0.00     0.001 A 
ATOM     27  C13 UNK     1      -4.421  38.101 233.559  1.00  0.00     0.010 A 
ENDBRANCH   1  22
TORSDOF 9
ENDMDL
MODEL 9
REMARK VINA RESULT:      -5.5      2.377      3.350
REMARK  9 active torsions:
REMARK  status: ('A' for Active; 'I' for Inactive)
REMARK    1  A    between atoms: O1_2  and  C9_14 
REMARK    2  A    between atoms: O1_2  and  C20_25 
REMARK    3  A    between atoms: O2_3  and  C21_26 
REMARK    4  A    between atoms: N1_4  and  C5_10 
REMARK    5  A    between atoms: N2_5  and  C6_11 
REMARK    6  A    between atoms: C5_10  and  C7_12 
REMARK    7  A    between atoms: C5_10  and  C8_13 
REMARK    8  A    between atoms: C6_11  and  C9_14 
REMARK    9  A    between atoms: C20_25  and  C21_26 
ROOT
ATOM      1  C5  UNK     1      -2.372  38.372 230.444  1.00  0.00     0.289 C 
ENDROOT
BRANCH   1   2
ATOM      2  N1  UNK     1      -1.916  39.745 230.231  1.00  0.00     0.105 N 
ATOM      3  C1  UNK     1      -0.661  39.765 229.469  1.00  0.00     0.304 C 
ATOM      4  C3  UNK     1      -0.183  41.204 229.245  1.00  0.00     0.302 C 
ATOM      5  N2  UNK     1      -1.211  41.996 228.560  1.00  0.00     0.094 N 
ATOM      6  C4  UNK     1      -2.466  41.974 229.321  1.00  0.00     0.302 C 
ATOM      7  C2  UNK     1      -2.944  40.536 229.545  1.00  0.00     0.304 C 
BRANCH   5   8
ATOM      8  C6  UNK     1      -0.754  43.369 228.350  1.00  0.00     0.298 C 
BRANCH   8   9
ATOM      9  C9  UNK     1       0.380  43.408 227.338  1.00  0.00     0.198 C 
BRANCH   9  10
ATOM     10  O1  UNK     1       1.366  44.325 227.793  1.00  0.00    -0.387 OA
BRANCH  10  11
ATOM     11  C20 UNK     1       0.979  44.946 229.011  1.00  0.00     0.193 C 
BRANCH  11  12
ATOM     12  C21 UNK     1       1.175  46.444 228.887  1.00  0.00     0.190 C 
BRANCH  12  13
ATOM     13  O2  UNK     1       0.476  47.093 229.942  1.00  0.00    -0.399 OA
ATOM     14  H27 UNK     1       0.908  46.843 230.777  1.00  0.00     0.209 HD
ENDBRANCH  12  13
ENDBRANCH  11  12
ENDBRANCH  10  11
ENDBRANCH   9  10
ENDBRANCH   8   9
ENDBRANCH   5   8
ENDBRANCH   1   2
BRANCH   1  15
ATOM     15  C7  UNK     1      -1.691  37.384 229.508  1.00  0.00    -0.021 A 
ATOM     16  C10 UNK     1      -0.406  36.970 229.796  1.00  0.00     0.011 A 
ATOM     17  C14 UNK     1       0.217  36.065 228.937  1.00  0.00     0.024 A 
ATOM     18  C18 UNK     1      -0.456  35.593 227.810  1.00  0.00     0.034 A 
ATOM     19 Cl1  UNK     1       0.314  34.478 226.752  1.00  0.00    -0.084 Cl
ATOM     20  C15 UNK     1      -1.754  36.027 227.542  1.00  0.00     0.024 A 
ATOM     21  C11 UNK     1      -2.379  36.932 228.401  1.00  0.00     0.011 A 
ENDBRANCH   1  15
BRANCH   1  22
ATOM     22  C8  UNK     1      -2.261  37.943 231.900  1.00  0.00    -0.021 A 
ATOM     23  C12 UNK     1      -1.540  38.730 232.774  1.00  0.00     0.010 A 
ATOM     24  C16 UNK     1      -1.440  38.338 234.109  1.00  0.00     0.001 A 
ATOM     25  C19 UNK     1      -2.062  37.166 234.539  1.00  0.00     0.000 A 
ATOM     26  C17 UNK     1      -2.785  36.387 233.636  1.00  0.00     0.001 A 
ATOM     27  C13 UNK     1      -2.885  36.779 232.301  1.00  0.00     0.010 A 
ENDBRANCH   1  22
TORSDOF 9
ENDMDL
