MODEL 1
REMARK VINA RESULT:      -5.7      0.000      0.000
REMARK  6 active torsions:
REMARK  status: ('A' for Active; 'I' for Inactive)
REMARK    1  A    between atoms: O1_1  and  C8_18 
REMARK    2  A    between atoms: O1_1  and  C16_26 
REMARK    3  A    between atoms: O2_2  and  C11_21 
REMARK    4  A    between atoms: C1_11  and  C4_14 
REMARK    5  A    between atoms: C2_12  and  C8_18 
REMARK    6  A    between atoms: C3_13  and  C11_21 
ROOT
ATOM      1  N1  UNK     1       3.264  35.382 236.758  1.00  0.00    -0.362 N 
ATOM      2  C1  UNK     1       0.636  36.087 235.970  1.00  0.00     0.103 C 
ATOM      3  C2  UNK     1       1.156  34.645 235.973  1.00  0.00     0.052 C 
ATOM      4  C3  UNK     1       1.624  37.080 236.589  1.00  0.00     0.052 C 
ATOM      5  C5  UNK     1       2.426  34.360 236.345  1.00  0.00     0.018 C 
ATOM      6  C6  UNK     1       2.878  36.703 236.924  1.00  0.00     0.018 C 
ATOM      7  C10 UNK     1       3.047  32.989 236.347  1.00  0.00     0.069 C 
ATOM      8  C12 UNK     1       3.939  37.609 237.489  1.00  0.00     0.069 C 
ATOM      9  H2  UNK     1       4.211  35.135 237.021  1.00  0.00     0.165 HD
ENDROOT
BRANCH   2  10
ATOM     10  C4  UNK     1       0.299  36.506 234.567  1.00  0.00    -0.014 A 
ATOM     11  C7  UNK     1      -0.990  36.828 234.127  1.00  0.00     0.092 A 
ATOM     12  N2  UNK     1      -2.149  36.841 234.798  1.00  0.00    -0.239 N 
ATOM     13  C13 UNK     1      -1.256  37.230 232.751  1.00  0.00     0.086 A 
ATOM     14  O4  UNK     1      -3.111  37.235 233.884  1.00  0.00    -0.156 OA
ATOM     15  H2  UNK     1      -2.293  36.609 235.781  1.00  0.00     0.197 HD
ATOM     16  N3  UNK     1      -2.568  37.472 232.633  1.00  0.00    -0.240 N 
ATOM     17  H3  UNK     1      -3.066  37.770 231.794  1.00  0.00     0.197 HD
ATOM     18  C15 UNK     1      -0.239  37.318 231.782  1.00  0.00     0.034 A 
ATOM     19  C14 UNK     1       1.043  36.987 232.256  1.00  0.00     0.003 A 
ATOM     20  C9  UNK     1       1.302  36.596 233.596  1.00  0.00     0.011 A 
ENDBRANCH   2  10
BRANCH   3  21
ATOM     21  C8  UNK     1       0.190  33.595 235.616  1.00  0.00     0.292 C 
ATOM     22  O3  UNK     1      -0.721  33.247 236.344  1.00  0.00    -0.259 OA
BRANCH  21  23
ATOM     23  O1  UNK     1       0.505  33.124 234.384  1.00  0.00    -0.313 OA
BRANCH  23  24
ATOM     24  C16 UNK     1      -0.612  32.883 233.522  1.00  0.00     0.124 C 
ATOM     25  C17 UNK     1      -0.361  33.551 232.179  1.00  0.00     0.040 C 
ATOM     26  C18 UNK     1      -0.821  31.382 233.380  1.00  0.00     0.040 C 
ENDBRANCH  23  24
ENDBRANCH  21  23
ENDBRANCH   3  21
BRANCH   4  27
ATOM     27  C11 UNK     1       1.120  38.440 236.842  1.00  0.00     0.291 C 
ATOM     28  O5  UNK     1       1.381  39.394 236.132  1.00  0.00    -0.260 OA
BRANCH  27  29
ATOM     29  O2  UNK     1       0.355  38.411 237.960  1.00  0.00    -0.323 OA
ATOM     30  C19 UNK     1       0.151  39.680 238.589  1.00  0.00     0.213 C 
ENDBRANCH  27  29
ENDBRANCH   4  27
TORSDOF 6
ENDMDL
MODEL 2
REMARK VINA RESULT:      -5.7      1.613      2.054
REMARK  6 active torsions:
REMARK  status: ('A' for Active; 'I' for Inactive)
REMARK    1  A    between atoms: O1_1  and  C8_18 
REMARK    2  A    between atoms: O1_1  and  C16_26 
REMARK    3  A    between atoms: O2_2  and  C11_21 
REMARK    4  A    between atoms: C1_11  and  C4_14 
REMARK    5  A    between atoms: C2_12  and  C8_18 
REMARK    6  A    between atoms: C3_13  and  C11_21 
ROOT
ATOM      1  N1  UNK     1       2.378  34.741 236.274  1.00  0.00    -0.362 N 
ATOM      2  C1  UNK     1       0.088  36.127 235.347  1.00  0.00     0.103 C 
ATOM      3  C2  UNK     1       0.211  34.599 235.332  1.00  0.00     0.052 C 
ATOM      4  C3  UNK     1       1.256  36.814 236.060  1.00  0.00     0.052 C 
ATOM      5  C5  UNK     1       1.333  33.983 235.773  1.00  0.00     0.018 C 
ATOM      6  C6  UNK     1       2.341  36.114 236.461  1.00  0.00     0.018 C 
ATOM      7  C10 UNK     1       1.571  32.498 235.768  1.00  0.00     0.069 C 
ATOM      8  C12 UNK     1       3.560  36.698 237.123  1.00  0.00     0.069 C 
ATOM      9  H2  UNK     1       3.206  34.249 236.588  1.00  0.00     0.165 HD
ENDROOT
BRANCH   2  10
ATOM     10  C4  UNK     1      -0.029  36.644 233.940  1.00  0.00    -0.014 A 
ATOM     11  C7  UNK     1      -1.023  37.525 233.503  1.00  0.00     0.092 A 
ATOM     12  N2  UNK     1      -2.036  38.082 234.179  1.00  0.00    -0.239 N 
ATOM     13  C13 UNK     1      -1.085  37.994 232.124  1.00  0.00     0.086 A 
ATOM     14  O4  UNK     1      -2.713  38.871 233.266  1.00  0.00    -0.156 OA
ATOM     15  H2  UNK     1      -2.263  37.951 235.165  1.00  0.00     0.197 HD
ATOM     16  N3  UNK     1      -2.134  38.818 232.010  1.00  0.00    -0.240 N 
ATOM     17  H3  UNK     1      -2.444  39.307 231.169  1.00  0.00     0.197 HD
ATOM     18  C15 UNK     1      -0.154  37.590 231.149  1.00  0.00     0.034 A 
ATOM     19  C14 UNK     1       0.832  36.703 231.620  1.00  0.00     0.003 A 
ATOM     20  C9  UNK     1       0.892  36.248 232.964  1.00  0.00     0.011 A 
ENDBRANCH   2  10
BRANCH   3  21
ATOM     21  C8  UNK     1      -0.969  33.846 234.878  1.00  0.00     0.292 C 
ATOM     22  O3  UNK     1      -1.044  33.312 233.788  1.00  0.00    -0.259 OA
BRANCH  21  23
ATOM     23  O1  UNK     1      -1.897  33.870 235.866  1.00  0.00    -0.313 OA
BRANCH  23  24
ATOM     24  C16 UNK     1      -3.152  34.457 235.506  1.00  0.00     0.124 C 
ATOM     25  C17 UNK     1      -4.235  33.390 235.552  1.00  0.00     0.040 C 
ATOM     26  C18 UNK     1      -3.454  35.613 236.448  1.00  0.00     0.040 C 
ENDBRANCH  23  24
ENDBRANCH  21  23
ENDBRANCH   3  21
BRANCH   4  27
ATOM     27  C11 UNK     1       1.109  38.254 236.329  1.00  0.00     0.291 C 
ATOM     28  O5  UNK     1       1.689  39.116 235.693  1.00  0.00    -0.260 OA
BRANCH  27  29
ATOM     29  O2  UNK     1       0.250  38.411 237.364  1.00  0.00    -0.323 OA
ATOM     30  C19 UNK     1       0.534  39.516 238.226  1.00  0.00     0.213 C 
ENDBRANCH  27  29
ENDBRANCH   4  27
TORSDOF 6
ENDMDL
MODEL 3
REMARK VINA RESULT:      -5.6      2.456      4.876
REMARK  6 active torsions:
REMARK  status: ('A' for Active; 'I' for Inactive)
REMARK    1  A    between atoms: O1_1  and  C8_18 
REMARK    2  A    between atoms: O1_1  and  C16_26 
REMARK    3  A    between atoms: O2_2  and  C11_21 
REMARK    4  A    between atoms: C1_11  and  C4_14 
REMARK    5  A    between atoms: C2_12  and  C8_18 
REMARK    6  A    between atoms: C3_13  and  C11_21 
ROOT
ATOM      1  N1  UNK     1       2.105  32.619 235.488  1.00  0.00    -0.362 N 
ATOM      2  C1  UNK     1       1.194  34.651 237.238  1.00  0.00     0.103 C 
ATOM      3  C2  UNK     1       0.635  34.442 235.826  1.00  0.00     0.052 C 
ATOM      4  C3  UNK     1       2.174  33.553 237.662  1.00  0.00     0.052 C 
ATOM      5  C5  UNK     1       1.113  33.465 235.021  1.00  0.00     0.018 C 
ATOM      6  C6  UNK     1       2.601  32.620 236.783  1.00  0.00     0.018 C 
ATOM      7  C10 UNK     1       0.663  33.199 233.611  1.00  0.00     0.069 C 
ATOM      8  C12 UNK     1       3.598  31.532 237.082  1.00  0.00     0.069 C 
ATOM      9  H2  UNK     1       2.447  31.903 234.857  1.00  0.00     0.165 HD
ENDROOT
BRANCH   2  10
ATOM     10  C4  UNK     1       1.859  35.996 237.330  1.00  0.00    -0.014 A 
ATOM     11  C7  UNK     1       1.219  37.167 237.749  1.00  0.00     0.092 A 
ATOM     12  N2  UNK     1      -0.047  37.362 238.139  1.00  0.00    -0.239 N 
ATOM     13  C13 UNK     1       1.918  38.444 237.818  1.00  0.00     0.086 A 
ATOM     14  O4  UNK     1      -0.147  38.708 238.445  1.00  0.00    -0.156 OA
ATOM     15  H2  UNK     1      -0.787  36.661 238.200  1.00  0.00     0.197 HD
ATOM     16  N3  UNK     1       1.052  39.371 238.249  1.00  0.00    -0.240 N 
ATOM     17  H3  UNK     1       1.237  40.363 238.401  1.00  0.00     0.197 HD
ATOM     18  C15 UNK     1       3.274  38.580 237.471  1.00  0.00     0.034 A 
ATOM     19  C14 UNK     1       3.889  37.385 237.054  1.00  0.00     0.003 A 
ATOM     20  C9  UNK     1       3.208  36.141 236.986  1.00  0.00     0.011 A 
ENDBRANCH   2  10
BRANCH   3  21
ATOM     21  C8  UNK     1      -0.483  35.311 235.424  1.00  0.00     0.292 C 
ATOM     22  O3  UNK     1      -1.527  35.389 236.044  1.00  0.00    -0.259 OA
BRANCH  21  23
ATOM     23  O1  UNK     1      -0.130  35.966 234.291  1.00  0.00    -0.313 OA
BRANCH  23  24
ATOM     24  C16 UNK     1       0.057  37.376 234.438  1.00  0.00     0.124 C 
ATOM     25  C17 UNK     1       1.486  37.735 234.062  1.00  0.00     0.040 C 
ATOM     26  C18 UNK     1      -0.958  38.110 233.573  1.00  0.00     0.040 C 
ENDBRANCH  23  24
ENDBRANCH  21  23
ENDBRANCH   3  21
BRANCH   4  27
ATOM     27  C11 UNK     1       2.579  33.541 239.077  1.00  0.00     0.291 C 
ATOM     28  O5  UNK     1       3.666  33.927 239.465  1.00  0.00    -0.260 OA
BRANCH  27  29
ATOM     29  O2  UNK     1       1.554  33.043 239.811  1.00  0.00    -0.323 OA
ATOM     30  C19 UNK     1       1.872  31.887 240.590  1.00  0.00     0.213 C 
ENDBRANCH  27  29
ENDBRANCH   4  27
TORSDOF 6
ENDMDL
MODEL 4
REMARK VINA RESULT:      -5.6      0.926      1.123
REMARK  6 active torsions:
REMARK  status: ('A' for Active; 'I' for Inactive)
REMARK    1  A    between atoms: O1_1  and  C8_18 
REMARK    2  A    between atoms: O1_1  and  C16_26 
REMARK    3  A    between atoms: O2_2  and  C11_21 
REMARK    4  A    between atoms: C1_11  and  C4_14 
REMARK    5  A    between atoms: C2_12  and  C8_18 
REMARK    6  A    between atoms: C3_13  and  C11_21 
ROOT
ATOM      1  N1  UNK     1       3.186  34.903 236.793  1.00  0.00    -0.362 N 
ATOM      2  C1  UNK     1       0.526  35.305 235.905  1.00  0.00     0.103 C 
ATOM      3  C2  UNK     1       1.297  33.998 235.689  1.00  0.00     0.052 C 
ATOM      4  C3  UNK     1       1.279  36.305 236.788  1.00  0.00     0.052 C 
ATOM      5  C5  UNK     1       2.572  33.859 236.120  1.00  0.00     0.018 C 
ATOM      6  C6  UNK     1       2.557  36.082 237.164  1.00  0.00     0.018 C 
ATOM      7  C10 UNK     1       3.429  32.638 235.927  1.00  0.00     0.069 C 
ATOM      8  C12 UNK     1       3.402  37.020 237.985  1.00  0.00     0.069 C 
ATOM      9  H2  UNK     1       4.144  34.768 237.094  1.00  0.00     0.165 HD
ENDROOT
BRANCH   2  10
ATOM     10  C4  UNK     1       0.204  35.934 234.579  1.00  0.00    -0.014 A 
ATOM     11  C7  UNK     1      -1.092  36.106 234.080  1.00  0.00     0.092 A 
ATOM     12  N2  UNK     1      -2.272  35.778 234.622  1.00  0.00    -0.239 N 
ATOM     13  C13 UNK     1      -1.343  36.724 232.784  1.00  0.00     0.086 A 
ATOM     14  O4  UNK     1      -3.232  36.172 233.707  1.00  0.00    -0.156 OA
ATOM     15  H2  UNK     1      -2.431  35.329 235.525  1.00  0.00     0.197 HD
ATOM     16  N3  UNK     1      -2.667  36.750 232.583  1.00  0.00    -0.240 N 
ATOM     17  H3  UNK     1      -3.159  37.119 231.769  1.00  0.00     0.197 HD
ATOM     18  C15 UNK     1      -0.303  37.185 231.956  1.00  0.00     0.034 A 
ATOM     19  C14 UNK     1       0.986  36.996 232.485  1.00  0.00     0.003 A 
ATOM     20  C9  UNK     1       1.230  36.394 233.747  1.00  0.00     0.011 A 
ENDBRANCH   2  10
BRANCH   3  21
ATOM     21  C8  UNK     1       0.559  32.895 235.054  1.00  0.00     0.292 C 
ATOM     22  O3  UNK     1      -0.294  32.243 235.626  1.00  0.00    -0.259 OA
BRANCH  21  23
ATOM     23  O1  UNK     1       1.000  32.764 233.779  1.00  0.00    -0.313 OA
BRANCH  23  24
ATOM     24  C16 UNK     1       0.055  32.200 232.865  1.00  0.00     0.124 C 
ATOM     25  C17 UNK     1      -0.335  33.251 231.836  1.00  0.00     0.040 C 
ATOM     26  C18 UNK     1       0.661  30.966 232.214  1.00  0.00     0.040 C 
ENDBRANCH  23  24
ENDBRANCH  21  23
ENDBRANCH   3  21
BRANCH   4  27
ATOM     27  C11 UNK     1       0.523  37.485 237.241  1.00  0.00     0.291 C 
ATOM     28  O5  UNK     1      -0.351  37.436 238.087  1.00  0.00    -0.260 OA
BRANCH  27  29
ATOM     29  O2  UNK     1       0.974  38.568 236.562  1.00  0.00    -0.323 OA
ATOM     30  C19 UNK     1       1.026  39.780 237.319  1.00  0.00     0.213 C 
ENDBRANCH  27  29
ENDBRANCH   4  27
TORSDOF 6
ENDMDL
MODEL 5
REMARK VINA RESULT:      -5.5      2.373      5.133
REMARK  6 active torsions:
REMARK  status: ('A' for Active; 'I' for Inactive)
REMARK    1  A    between atoms: O1_1  and  C8_18 
REMARK    2  A    between atoms: O1_1  and  C16_26 
REMARK    3  A    between atoms: O2_2  and  C11_21 
REMARK    4  A    between atoms: C1_11  and  C4_14 
REMARK    5  A    between atoms: C2_12  and  C8_18 
REMARK    6  A    between atoms: C3_13  and  C11_21 
ROOT
ATOM      1  N1  UNK     1      -0.796  33.738 234.256  1.00  0.00    -0.362 N 
ATOM      2  C1  UNK     1      -0.219  36.250 235.429  1.00  0.00     0.103 C 
ATOM      3  C2  UNK     1      -0.015  35.950 233.940  1.00  0.00     0.052 C 
ATOM      4  C3  UNK     1      -0.916  35.111 236.179  1.00  0.00     0.052 C 
ATOM      5  C5  UNK     1      -0.293  34.728 233.428  1.00  0.00     0.018 C 
ATOM      6  C6  UNK     1      -1.146  33.920 235.585  1.00  0.00     0.018 C 
ATOM      7  C10 UNK     1      -0.094  34.317 231.995  1.00  0.00     0.069 C 
ATOM      8  C12 UNK     1      -1.776  32.722 236.245  1.00  0.00     0.069 C 
ATOM      9  H2  UNK     1      -0.985  32.832 233.842  1.00  0.00     0.165 HD
ENDROOT
BRANCH   2  10
ATOM     10  C4  UNK     1       1.103  36.555 236.075  1.00  0.00    -0.014 A 
ATOM     11  C7  UNK     1       1.491  37.824 236.518  1.00  0.00     0.092 A 
ATOM     12  N2  UNK     1       0.830  38.988 236.480  1.00  0.00    -0.239 N 
ATOM     13  C13 UNK     1       2.790  38.059 237.139  1.00  0.00     0.086 A 
ATOM     14  O4  UNK     1       1.674  39.923 237.053  1.00  0.00    -0.156 OA
ATOM     15  H2  UNK     1      -0.105  39.152 236.105  1.00  0.00     0.197 HD
ATOM     16  N3  UNK     1       2.872  39.358 237.455  1.00  0.00    -0.240 N 
ATOM     17  H3  UNK     1       3.656  39.834 237.901  1.00  0.00     0.197 HD
ATOM     18  C15 UNK     1       3.730  37.030 237.329  1.00  0.00     0.034 A 
ATOM     19  C14 UNK     1       3.310  35.768 236.872  1.00  0.00     0.003 A 
ATOM     20  C9  UNK     1       2.046  35.540 236.268  1.00  0.00     0.011 A 
ENDBRANCH   2  10
BRANCH   3  21
ATOM     21  C8  UNK     1       0.431  37.070 233.096  1.00  0.00     0.292 C 
ATOM     22  O3  UNK     1       1.455  37.047 232.439  1.00  0.00    -0.259 OA
BRANCH  21  23
ATOM     23  O1  UNK     1      -0.479  38.070 233.196  1.00  0.00    -0.313 OA
BRANCH  23  24
ATOM     24  C16 UNK     1      -1.625  37.935 232.350  1.00  0.00     0.124 C 
ATOM     25  C17 UNK     1      -2.798  38.675 232.973  1.00  0.00     0.040 C 
ATOM     26  C18 UNK     1      -1.289  38.467 230.964  1.00  0.00     0.040 C 
ENDBRANCH  23  24
ENDBRANCH  21  23
ENDBRANCH   3  21
BRANCH   4  27
ATOM     27  C11 UNK     1      -1.362  35.402 237.552  1.00  0.00     0.291 C 
ATOM     28  O5  UNK     1      -0.828  34.937 238.542  1.00  0.00    -0.260 OA
BRANCH  27  29
ATOM     29  O2  UNK     1      -2.425  36.241 237.487  1.00  0.00    -0.323 OA
ATOM     30  C19 UNK     1      -3.704  35.607 237.574  1.00  0.00     0.213 C 
ENDBRANCH  27  29
ENDBRANCH   4  27
TORSDOF 6
ENDMDL
MODEL 6
REMARK VINA RESULT:      -5.4      2.474      3.904
REMARK  6 active torsions:
REMARK  status: ('A' for Active; 'I' for Inactive)
REMARK    1  A    between atoms: O1_1  and  C8_18 
REMARK    2  A    between atoms: O1_1  and  C16_26 
REMARK    3  A    between atoms: O2_2  and  C11_21 
REMARK    4  A    between atoms: C1_11  and  C4_14 
REMARK    5  A    between atoms: C2_12  and  C8_18 
REMARK    6  A    between atoms: C3_13  and  C11_21 
ROOT
ATOM      1  N1  UNK     1      -0.317  34.862 236.079  1.00  0.00    -0.362 N 
ATOM      2  C1  UNK     1      -0.959  37.049 234.397  1.00  0.00     0.103 C 
ATOM      3  C2  UNK     1      -1.911  35.875 234.651  1.00  0.00     0.052 C 
ATOM      4  C3  UNK     1       0.300  36.999 235.268  1.00  0.00     0.052 C 
ATOM      5  C5  UNK     1      -1.553  34.845 235.453  1.00  0.00     0.018 C 
ATOM      6  C6  UNK     1       0.577  35.921 236.035  1.00  0.00     0.018 C 
ATOM      7  C10 UNK     1      -2.393  33.630 235.739  1.00  0.00     0.069 C 
ATOM      8  C12 UNK     1       1.807  35.749 236.885  1.00  0.00     0.069 C 
ATOM      9  H2  UNK     1      -0.077  34.071 236.665  1.00  0.00     0.165 HD
ENDROOT
BRANCH   2  10
ATOM     10  C4  UNK     1      -0.575  37.091 232.944  1.00  0.00    -0.014 A 
ATOM     11  C7  UNK     1      -0.977  38.088 232.049  1.00  0.00     0.092 A 
ATOM     12  N2  UNK     1      -1.743  39.168 232.253  1.00  0.00    -0.239 N 
ATOM     13  C13 UNK     1      -0.572  38.076 230.649  1.00  0.00     0.086 A 
ATOM     14  O4  UNK     1      -1.820  39.813 231.031  1.00  0.00    -0.156 OA
ATOM     15  H2  UNK     1      -2.180  39.456 233.129  1.00  0.00     0.197 HD
ATOM     16  N3  UNK     1      -1.106  39.148 230.050  1.00  0.00    -0.240 N 
ATOM     17  H3  UNK     1      -1.008  39.419 229.071  1.00  0.00     0.197 HD
ATOM     18  C15 UNK     1       0.244  37.064 230.111  1.00  0.00     0.034 A 
ATOM     19  C14 UNK     1       0.630  36.076 231.035  1.00  0.00     0.003 A 
ATOM     20  C9  UNK     1       0.235  36.089 232.399  1.00  0.00     0.011 A 
ENDBRANCH   2  10
BRANCH   3  21
ATOM     21  C8  UNK     1      -3.244  35.962 234.035  1.00  0.00     0.292 C 
ATOM     22  O3  UNK     1      -3.534  35.419 232.985  1.00  0.00    -0.259 OA
BRANCH  21  23
ATOM     23  O1  UNK     1      -4.034  36.724 234.831  1.00  0.00    -0.313 OA
BRANCH  23  24
ATOM     24  C16 UNK     1      -5.438  36.619 234.572  1.00  0.00     0.124 C 
ATOM     25  C17 UNK     1      -6.016  35.478 235.395  1.00  0.00     0.040 C 
ATOM     26  C18 UNK     1      -6.108  37.947 234.893  1.00  0.00     0.040 C 
ENDBRANCH  23  24
ENDBRANCH  21  23
ENDBRANCH   3  21
BRANCH   4  27
ATOM     27  C11 UNK     1       1.154  38.198 235.263  1.00  0.00     0.291 C 
ATOM     28  O5  UNK     1       2.129  38.322 234.545  1.00  0.00    -0.260 OA
BRANCH  27  29
ATOM     29  O2  UNK     1       0.659  39.079 236.167  1.00  0.00    -0.323 OA
ATOM     30  C19 UNK     1       1.562  39.444 237.214  1.00  0.00     0.213 C 
ENDBRANCH  27  29
ENDBRANCH   4  27
TORSDOF 6
ENDMDL
MODEL 7
REMARK VINA RESULT:      -5.4      2.549      5.421
REMARK  6 active torsions:
REMARK  status: ('A' for Active; 'I' for Inactive)
REMARK    1  A    between atoms: O1_1  and  C8_18 
REMARK    2  A    between atoms: O1_1  and  C16_26 
REMARK    3  A    between atoms: O2_2  and  C11_21 
REMARK    4  A    between atoms: C1_11  and  C4_14 
REMARK    5  A    between atoms: C2_12  and  C8_18 
REMARK    6  A    between atoms: C3_13  and  C11_21 
ROOT
ATOM      1  N1  UNK     1      -2.305  37.074 235.435  1.00  0.00    -0.362 N 
ATOM      2  C1  UNK     1       0.218  35.848 235.831  1.00  0.00     0.103 C 
ATOM      3  C2  UNK     1      -1.048  35.434 236.590  1.00  0.00     0.052 C 
ATOM      4  C3  UNK     1      -0.055  36.874 234.728  1.00  0.00     0.052 C 
ATOM      5  C5  UNK     1      -2.228  36.060 236.375  1.00  0.00     0.018 C 
ATOM      6  C6  UNK     1      -1.269  37.453 234.595  1.00  0.00     0.018 C 
ATOM      7  C10 UNK     1      -3.518  35.758 237.090  1.00  0.00     0.069 C 
ATOM      8  C12 UNK     1      -1.627  38.506 233.581  1.00  0.00     0.069 C 
ATOM      9  H2  UNK     1      -3.202  37.527 235.306  1.00  0.00     0.165 HD
ENDROOT
BRANCH   2  10
ATOM     10  C4  UNK     1       1.237  36.390 236.795  1.00  0.00    -0.014 A 
ATOM     11  C7  UNK     1       1.044  37.523 237.593  1.00  0.00     0.092 A 
ATOM     12  N2  UNK     1      -0.014  38.338 237.687  1.00  0.00    -0.239 N 
ATOM     13  C13 UNK     1       2.070  38.002 238.511  1.00  0.00     0.086 A 
ATOM     14  O4  UNK     1       0.328  39.295 238.626  1.00  0.00    -0.156 OA
ATOM     15  H2  UNK     1      -0.892  38.269 237.172  1.00  0.00     0.197 HD
ATOM     16  N3  UNK     1       1.600  39.092 239.130  1.00  0.00    -0.240 N 
ATOM     17  H3  UNK     1       2.081  39.658 239.830  1.00  0.00     0.197 HD
ATOM     18  C15 UNK     1       3.314  37.359 238.651  1.00  0.00     0.034 A 
ATOM     19  C14 UNK     1       3.476  36.225 237.835  1.00  0.00     0.003 A 
ATOM     20  C9  UNK     1       2.477  35.759 236.941  1.00  0.00     0.011 A 
ENDBRANCH   2  10
BRANCH   3  21
ATOM     21  C8  UNK     1      -0.923  34.287 237.504  1.00  0.00     0.292 C 
ATOM     22  O3  UNK     1      -0.889  33.131 237.127  1.00  0.00    -0.259 OA
BRANCH  21  23
ATOM     23  O1  UNK     1      -0.859  34.758 238.774  1.00  0.00    -0.313 OA
BRANCH  23  24
ATOM     24  C16 UNK     1      -0.067  33.975 239.672  1.00  0.00     0.124 C 
ATOM     25  C17 UNK     1       0.987  34.863 240.315  1.00  0.00     0.040 C 
ATOM     26  C18 UNK     1      -0.974  33.329 240.708  1.00  0.00     0.040 C 
ENDBRANCH  23  24
ENDBRANCH  21  23
ENDBRANCH   3  21
BRANCH   4  27
ATOM     27  C11 UNK     1       1.053  37.154 233.799  1.00  0.00     0.291 C 
ATOM     28  O5  UNK     1       1.826  38.084 233.939  1.00  0.00    -0.260 OA
BRANCH  27  29
ATOM     29  O2  UNK     1       1.033  36.220 232.817  1.00  0.00    -0.323 OA
ATOM     30  C19 UNK     1       0.917  36.739 231.489  1.00  0.00     0.213 C 
ENDBRANCH  27  29
ENDBRANCH   4  27
TORSDOF 6
ENDMDL
MODEL 8
REMARK VINA RESULT:      -5.0      3.358      7.267
REMARK  6 active torsions:
REMARK  status: ('A' for Active; 'I' for Inactive)
REMARK    1  A    between atoms: O1_1  and  C8_18 
REMARK    2  A    between atoms: O1_1  and  C16_26 
REMARK    3  A    between atoms: O2_2  and  C11_21 
REMARK    4  A    between atoms: C1_11  and  C4_14 
REMARK    5  A    between atoms: C2_12  and  C8_18 
REMARK    6  A    between atoms: C3_13  and  C11_21 
ROOT
ATOM      1  N1  UNK     1      -4.623  36.798 230.237  1.00  0.00    -0.362 N 
ATOM      2  C1  UNK     1      -2.752  37.759 232.134  1.00  0.00     0.103 C 
ATOM      3  C2  UNK     1      -2.639  38.028 230.630  1.00  0.00     0.052 C 
ATOM      4  C3  UNK     1      -4.059  37.061 232.520  1.00  0.00     0.052 C 
ATOM      5  C5  UNK     1      -3.551  37.536 229.760  1.00  0.00     0.018 C 
ATOM      6  C6  UNK     1      -4.908  36.595 231.578  1.00  0.00     0.018 C 
ATOM      7  C10 UNK     1      -3.514  37.709 228.266  1.00  0.00     0.069 C 
ATOM      8  C12 UNK     1      -6.189  35.852 231.848  1.00  0.00     0.069 C 
ATOM      9  H2  UNK     1      -5.282  36.437 229.557  1.00  0.00     0.165 HD
ENDROOT
BRANCH   2  10
ATOM     10  C4  UNK     1      -1.578  36.941 232.597  1.00  0.00    -0.014 A 
ATOM     11  C7  UNK     1      -0.640  37.370 233.542  1.00  0.00     0.092 A 
ATOM     12  N2  UNK     1      -0.565  38.525 234.214  1.00  0.00    -0.239 N 
ATOM     13  C13 UNK     1       0.479  36.531 233.952  1.00  0.00     0.086 A 
ATOM     14  O4  UNK     1       0.557  38.423 235.019  1.00  0.00    -0.156 OA
ATOM     15  H2  UNK     1      -1.203  39.319 234.148  1.00  0.00     0.197 HD
ATOM     16  N3  UNK     1       1.196  37.206 234.859  1.00  0.00    -0.240 N 
ATOM     17  H3  UNK     1       2.041  36.889 235.336  1.00  0.00     0.197 HD
ATOM     18  C15 UNK     1       0.686  35.243 233.425  1.00  0.00     0.034 A 
ATOM     19  C14 UNK     1      -0.273  34.842 232.478  1.00  0.00     0.003 A 
ATOM     20  C9  UNK     1      -1.363  35.659 232.079  1.00  0.00     0.011 A 
ENDBRANCH   2  10
BRANCH   3  21
ATOM     21  C8  UNK     1      -1.533  38.898 230.197  1.00  0.00     0.292 C 
ATOM     22  O3  UNK     1      -0.501  38.475 229.710  1.00  0.00    -0.259 OA
BRANCH  21  23
ATOM     23  O1  UNK     1      -1.882  40.185 230.437  1.00  0.00    -0.313 OA
BRANCH  23  24
ATOM     24  C16 UNK     1      -1.758  41.067 229.317  1.00  0.00     0.124 C 
ATOM     25  C17 UNK     1      -3.138  41.343 228.741  1.00  0.00     0.040 C 
ATOM     26  C18 UNK     1      -1.062  42.346 229.760  1.00  0.00     0.040 C 
ENDBRANCH  23  24
ENDBRANCH  21  23
ENDBRANCH   3  21
BRANCH   4  27
ATOM     27  C11 UNK     1      -4.360  36.972 233.959  1.00  0.00     0.291 C 
ATOM     28  O5  UNK     1      -4.859  37.882 234.596  1.00  0.00    -0.260 OA
BRANCH  27  29
ATOM     29  O2  UNK     1      -3.988  35.745 234.399  1.00  0.00    -0.323 OA
ATOM     30  C19 UNK     1      -3.324  35.731 235.666  1.00  0.00     0.213 C 
ENDBRANCH  27  29
ENDBRANCH   4  27
TORSDOF 6
ENDMDL
MODEL 9
REMARK VINA RESULT:      -4.9      2.318      5.934
REMARK  6 active torsions:
REMARK  status: ('A' for Active; 'I' for Inactive)
REMARK    1  A    between atoms: O1_1  and  C8_18 
REMARK    2  A    between atoms: O1_1  and  C16_26 
REMARK    3  A    between atoms: O2_2  and  C11_21 
REMARK    4  A    between atoms: C1_11  and  C4_14 
REMARK    5  A    between atoms: C2_12  and  C8_18 
REMARK    6  A    between atoms: C3_13  and  C11_21 
ROOT
ATOM      1  N1  UNK     1      -1.426  35.748 230.707  1.00  0.00    -0.362 N 
ATOM      2  C1  UNK     1      -1.523  35.971 233.530  1.00  0.00     0.103 C 
ATOM      3  C2  UNK     1      -2.234  36.945 232.583  1.00  0.00     0.052 C 
ATOM      4  C3  UNK     1      -0.895  34.779 232.801  1.00  0.00     0.052 C 
ATOM      5  C5  UNK     1      -2.147  36.804 231.240  1.00  0.00     0.018 C 
ATOM      6  C6  UNK     1      -0.848  34.730 231.451  1.00  0.00     0.018 C 
ATOM      7  C10 UNK     1      -2.772  37.722 230.225  1.00  0.00     0.069 C 
ATOM      8  C12 UNK     1      -0.211  33.634 230.639  1.00  0.00     0.069 C 
ATOM      9  H2  UNK     1      -1.374  35.678 229.698  1.00  0.00     0.165 HD
ENDROOT
BRANCH   2  10
ATOM     10  C4  UNK     1      -0.472  36.701 234.318  1.00  0.00    -0.014 A 
ATOM     11  C7  UNK     1      -0.551  36.956 235.692  1.00  0.00     0.092 A 
ATOM     12  N2  UNK     1      -1.508  36.636 236.572  1.00  0.00    -0.239 N 
ATOM     13  C13 UNK     1       0.502  37.669 236.404  1.00  0.00     0.086 A 
ATOM     14  O4  UNK     1      -1.080  37.126 237.793  1.00  0.00    -0.156 OA
ATOM     15  H2  UNK     1      -2.375  36.133 236.382  1.00  0.00     0.197 HD
ATOM     16  N3  UNK     1       0.147  37.759 237.693  1.00  0.00    -0.240 N 
ATOM     17  H3  UNK     1       0.673  38.202 238.446  1.00  0.00     0.197 HD
ATOM     18  C15 UNK     1       1.658  38.146 235.759  1.00  0.00     0.034 A 
ATOM     19  C14 UNK     1       1.706  37.875 234.379  1.00  0.00     0.003 A 
ATOM     20  C9  UNK     1       0.680  37.179 233.686  1.00  0.00     0.011 A 
ENDBRANCH   2  10
BRANCH   3  21
ATOM     21  C8  UNK     1      -3.062  37.988 233.209  1.00  0.00     0.292 C 
ATOM     22  O3  UNK     1      -2.633  39.082 233.526  1.00  0.00    -0.259 OA
BRANCH  21  23
ATOM     23  O1  UNK     1      -4.321  37.507 233.352  1.00  0.00    -0.313 OA
BRANCH  23  24
ATOM     24  C16 UNK     1      -4.814  37.485 234.695  1.00  0.00     0.124 C 
ATOM     25  C17 UNK     1      -6.218  38.070 234.724  1.00  0.00     0.040 C 
ATOM     26  C18 UNK     1      -4.784  36.055 235.216  1.00  0.00     0.040 C 
ENDBRANCH  23  24
ENDBRANCH  21  23
ENDBRANCH   3  21
BRANCH   4  27
ATOM     27  C11 UNK     1      -0.397  33.679 233.643  1.00  0.00     0.291 C 
ATOM     28  O5  UNK     1       0.782  33.506 233.890  1.00  0.00    -0.260 OA
BRANCH  27  29
ATOM     29  O2  UNK     1      -1.458  32.945 234.059  1.00  0.00    -0.323 OA
ATOM     30  C19 UNK     1      -1.619  32.863 235.477  1.00  0.00     0.213 C 
ENDBRANCH  27  29
ENDBRANCH   4  27
TORSDOF 6
ENDMDL
