MODEL 1
REMARK VINA RESULT:      -5.1      0.000      0.000
REMARK  1 active torsions:
REMARK  status: ('A' for Active; 'I' for Inactive)
REMARK    1  A    between atoms: N1_1  and  C2_3 
ROOT
ATOM      1  C1  UNK     1       2.087  37.222 236.917  1.00  0.00    -0.008 C 
ATOM      2  C2  UNK     1       0.984  37.264 238.064  1.00  0.00     0.164 C 
ATOM      3  C3  UNK     1       2.685  38.672 237.001  1.00  0.00    -0.004 C 
ATOM      4  C4  UNK     1       1.154  38.719 238.622  1.00  0.00     0.025 C 
ATOM      5  C5  UNK     1       1.458  39.522 237.353  1.00  0.00     0.012 C 
ATOM      6  C6  UNK     1       3.532  38.886 238.269  1.00  0.00     0.006 C 
ATOM      7  C7  UNK     1       2.483  38.904 239.385  1.00  0.00     0.007 C 
ATOM      8  C8  UNK     1       3.166  36.134 237.096  1.00  0.00     0.018 C 
ATOM      9  C9  UNK     1       1.510  37.001 235.497  1.00  0.00     0.018 C 
ATOM     10  C10 UNK     1      -0.468  37.076 237.573  1.00  0.00     0.050 C 
ENDROOT
BRANCH   2  11
ATOM     11  N1  UNK     1       1.136  36.256 239.120  1.00  0.00     0.089 N 
ATOM     12  C11 UNK     1       0.124  35.222 238.989  1.00  0.00     0.307 C 
ATOM     13  H18 UNK     1       1.065  36.685 240.039  1.00  0.00     0.316 HD
ENDBRANCH   2  11
TORSDOF 1
ENDMDL
MODEL 2
REMARK VINA RESULT:      -5.1      1.127      2.985
REMARK  1 active torsions:
REMARK  status: ('A' for Active; 'I' for Inactive)
REMARK    1  A    between atoms: N1_1  and  C2_3 
ROOT
ATOM      1  C1  UNK     1       2.222  38.322 238.455  1.00  0.00    -0.008 C 
ATOM      2  C2  UNK     1       1.883  36.772 238.574  1.00  0.00     0.164 C 
ATOM      3  C3  UNK     1       2.971  38.377 237.075  1.00  0.00    -0.004 C 
ATOM      4  C4  UNK     1       2.475  36.208 237.236  1.00  0.00     0.025 C 
ATOM      5  C5  UNK     1       3.742  37.052 237.059  1.00  0.00     0.012 C 
ATOM      6  C6  UNK     1       2.023  38.151 235.882  1.00  0.00     0.006 C 
ATOM      7  C7  UNK     1       1.671  36.664 236.000  1.00  0.00     0.007 C 
ATOM      8  C8  UNK     1       0.995  39.257 238.489  1.00  0.00     0.018 C 
ATOM      9  C9  UNK     1       3.171  38.846 239.560  1.00  0.00     0.018 C 
ATOM     10  C10 UNK     1       2.552  36.053 239.766  1.00  0.00     0.050 C 
ENDROOT
BRANCH   2  11
ATOM     11  N1  UNK     1       0.459  36.448 238.716  1.00  0.00     0.089 N 
ATOM     12  C11 UNK     1       0.289  35.072 239.150  1.00  0.00     0.307 C 
ATOM     13  H18 UNK     1      -0.031  36.588 237.837  1.00  0.00     0.316 HD
ENDBRANCH   2  11
TORSDOF 1
ENDMDL
MODEL 3
REMARK VINA RESULT:      -4.9      1.045      2.864
REMARK  1 active torsions:
REMARK  status: ('A' for Active; 'I' for Inactive)
REMARK    1  A    between atoms: N1_1  and  C2_3 
ROOT
ATOM      1  C1  UNK     1       0.808  36.764 237.822  1.00  0.00    -0.008 C 
ATOM      2  C2  UNK     1       1.763  37.893 238.410  1.00  0.00     0.164 C 
ATOM      3  C3  UNK     1       1.540  36.397 236.481  1.00  0.00    -0.004 C 
ATOM      4  C4  UNK     1       2.888  37.964 237.320  1.00  0.00     0.025 C 
ATOM      5  C5  UNK     1       2.100  37.749 236.023  1.00  0.00     0.012 C 
ATOM      6  C6  UNK     1       2.853  35.630 236.720  1.00  0.00     0.006 C 
ATOM      7  C7  UNK     1       3.776  36.701 237.309  1.00  0.00     0.007 C 
ATOM      8  C8  UNK     1       0.616  35.537 238.736  1.00  0.00     0.018 C 
ATOM      9  C9  UNK     1      -0.622  37.259 237.491  1.00  0.00     0.018 C 
ATOM     10  C10 UNK     1       1.109  39.284 238.554  1.00  0.00     0.050 C 
ENDROOT
BRANCH   2  11
ATOM     11  N1  UNK     1       2.315  37.619 239.742  1.00  0.00     0.089 N 
ATOM     12  C11 UNK     1       3.185  38.702 240.168  1.00  0.00     0.307 C 
ATOM     13  H18 UNK     1       2.836  36.746 239.743  1.00  0.00     0.316 HD
ENDBRANCH   2  11
TORSDOF 1
ENDMDL
MODEL 4
REMARK VINA RESULT:      -4.9      1.155      2.128
REMARK  1 active torsions:
REMARK  status: ('A' for Active; 'I' for Inactive)
REMARK    1  A    between atoms: N1_1  and  C2_3 
ROOT
ATOM      1  C1  UNK     1       2.818  37.856 237.612  1.00  0.00    -0.008 C 
ATOM      2  C2  UNK     1       1.701  36.875 238.181  1.00  0.00     0.164 C 
ATOM      3  C3  UNK     1       1.961  38.831 236.728  1.00  0.00    -0.004 C 
ATOM      4  C4  UNK     1       0.396  37.467 237.545  1.00  0.00     0.025 C 
ATOM      5  C5  UNK     1       0.879  37.906 236.158  1.00  0.00     0.012 C 
ATOM      6  C6  UNK     1       1.087  39.776 237.574  1.00  0.00     0.006 C 
ATOM      7  C7  UNK     1       0.020  38.838 238.147  1.00  0.00     0.007 C 
ATOM      8  C8  UNK     1       3.630  38.607 238.688  1.00  0.00     0.018 C 
ATOM      9  C9  UNK     1       3.869  37.160 236.712  1.00  0.00     0.018 C 
ATOM     10  C10 UNK     1       1.853  35.401 237.746  1.00  0.00     0.050 C 
ENDROOT
BRANCH   2  11
ATOM     11  N1  UNK     1       1.610  36.807 239.643  1.00  0.00     0.089 N 
ATOM     12  C11 UNK     1       1.805  35.443 240.105  1.00  0.00     0.307 C 
ATOM     13  H18 UNK     1       0.707  37.146 239.964  1.00  0.00     0.316 HD
ENDBRANCH   2  11
TORSDOF 1
ENDMDL
MODEL 5
REMARK VINA RESULT:      -4.7      1.392      3.136
REMARK  1 active torsions:
REMARK  status: ('A' for Active; 'I' for Inactive)
REMARK    1  A    between atoms: N1_1  and  C2_3 
ROOT
ATOM      1  C1  UNK     1       1.654  37.100 238.383  1.00  0.00    -0.008 C 
ATOM      2  C2  UNK     1       2.184  37.509 236.939  1.00  0.00     0.164 C 
ATOM      3  C3  UNK     1       1.657  38.485 239.123  1.00  0.00    -0.004 C 
ATOM      4  C4  UNK     1       2.379  39.057 237.091  1.00  0.00     0.025 C 
ATOM      5  C5  UNK     1       2.889  39.181 238.531  1.00  0.00     0.012 C 
ATOM      6  C6  UNK     1       0.549  39.426 238.616  1.00  0.00     0.006 C 
ATOM      7  C7  UNK     1       1.036  39.808 237.214  1.00  0.00     0.007 C 
ATOM      8  C8  UNK     1       0.262  36.435 238.397  1.00  0.00     0.018 C 
ATOM      9  C9  UNK     1       2.586  36.125 239.143  1.00  0.00     0.018 C 
ATOM     10  C10 UNK     1       3.530  36.866 236.537  1.00  0.00     0.050 C 
ENDROOT
BRANCH   2  11
ATOM     11  N1  UNK     1       1.288  37.182 235.824  1.00  0.00     0.089 N 
ATOM     12  C11 UNK     1       1.782  37.756 234.585  1.00  0.00     0.307 C 
ATOM     13  H18 UNK     1       0.349  37.526 236.005  1.00  0.00     0.316 HD
ENDBRANCH   2  11
TORSDOF 1
ENDMDL
MODEL 6
REMARK VINA RESULT:      -4.7      1.422      2.220
REMARK  1 active torsions:
REMARK  status: ('A' for Active; 'I' for Inactive)
REMARK    1  A    between atoms: N1_1  and  C2_3 
ROOT
ATOM      1  C1  UNK     1       2.730  36.173 238.476  1.00  0.00    -0.008 C 
ATOM      2  C2  UNK     1       1.510  36.774 237.649  1.00  0.00     0.164 C 
ATOM      3  C3  UNK     1       3.857  37.230 238.190  1.00  0.00    -0.004 C 
ATOM      4  C4  UNK     1       2.137  38.081 237.051  1.00  0.00     0.025 C 
ATOM      5  C5  UNK     1       3.572  37.640 236.740  1.00  0.00     0.012 C 
ATOM      6  C6  UNK     1       3.600  38.570 238.903  1.00  0.00     0.006 C 
ATOM      7  C7  UNK     1       2.410  39.150 238.130  1.00  0.00     0.007 C 
ATOM      8  C8  UNK     1       2.466  35.998 239.986  1.00  0.00     0.018 C 
ATOM      9  C9  UNK     1       3.207  34.787 237.976  1.00  0.00     0.018 C 
ATOM     10  C10 UNK     1       1.006  35.880 236.496  1.00  0.00     0.050 C 
ENDROOT
BRANCH   2  11
ATOM     11  N1  UNK     1       0.302  37.062 238.431  1.00  0.00     0.089 N 
ATOM     12  C11 UNK     1      -0.885  36.939 237.602  1.00  0.00     0.307 C 
ATOM     13  H18 UNK     1       0.343  37.998 238.825  1.00  0.00     0.316 HD
ENDBRANCH   2  11
TORSDOF 1
ENDMDL
MODEL 7
REMARK VINA RESULT:      -4.7      1.687      3.366
REMARK  1 active torsions:
REMARK  status: ('A' for Active; 'I' for Inactive)
REMARK    1  A    between atoms: N1_1  and  C2_3 
ROOT
ATOM      1  C1  UNK     1       1.868  38.402 237.972  1.00  0.00    -0.008 C 
ATOM      2  C2  UNK     1       1.446  37.780 236.569  1.00  0.00     0.164 C 
ATOM      3  C3  UNK     1       1.986  37.116 238.865  1.00  0.00    -0.004 C 
ATOM      4  C4  UNK     1       1.415  36.246 236.891  1.00  0.00     0.025 C 
ATOM      5  C5  UNK     1       0.863  36.225 238.321  1.00  0.00     0.012 C 
ATOM      6  C6  UNK     1       3.211  36.256 238.500  1.00  0.00     0.006 C 
ATOM      7  C7  UNK     1       2.826  35.670 237.138  1.00  0.00     0.007 C 
ATOM      8  C8  UNK     1       3.177  39.219 237.950  1.00  0.00     0.018 C 
ATOM      9  C9  UNK     1       0.805  39.343 238.589  1.00  0.00     0.018 C 
ATOM     10  C10 UNK     1       0.056  38.218 236.058  1.00  0.00     0.050 C 
ENDROOT
BRANCH   2  11
ATOM     11  N1  UNK     1       2.347  38.082 235.451  1.00  0.00     0.089 N 
ATOM     12  C11 UNK     1       1.689  37.825 234.181  1.00  0.00     0.307 C 
ATOM     13  H18 UNK     1       3.194  37.524 235.511  1.00  0.00     0.316 HD
ENDBRANCH   2  11
TORSDOF 1
ENDMDL
MODEL 8
REMARK VINA RESULT:      -4.6      1.970      3.347
REMARK  1 active torsions:
REMARK  status: ('A' for Active; 'I' for Inactive)
REMARK    1  A    between atoms: N1_1  and  C2_3 
ROOT
ATOM      1  C1  UNK     1       0.598  36.865 236.608  1.00  0.00    -0.008 C 
ATOM      2  C2  UNK     1       0.798  37.969 235.478  1.00  0.00     0.164 C 
ATOM      3  C3  UNK     1       1.514  37.420 237.757  1.00  0.00    -0.004 C 
ATOM      4  C4  UNK     1       1.775  38.975 236.179  1.00  0.00     0.025 C 
ATOM      5  C5  UNK     1       2.684  38.041 236.984  1.00  0.00     0.012 C 
ATOM      6  C6  UNK     1       0.930  38.683 238.418  1.00  0.00     0.006 C 
ATOM      7  C7  UNK     1       1.095  39.749 237.329  1.00  0.00     0.007 C 
ATOM      8  C8  UNK     1      -0.861  36.669 237.070  1.00  0.00     0.018 C 
ATOM      9  C9  UNK     1       1.098  35.456 236.207  1.00  0.00     0.018 C 
ATOM     10  C10 UNK     1       1.451  37.452 234.178  1.00  0.00     0.050 C 
ENDROOT
BRANCH   2  11
ATOM     11  N1  UNK     1      -0.429  38.631 235.022  1.00  0.00     0.089 N 
ATOM     12  C11 UNK     1      -0.800  38.163 233.698  1.00  0.00     0.307 C 
ATOM     13  H18 UNK     1      -0.306  39.640 235.001  1.00  0.00     0.316 HD
ENDBRANCH   2  11
TORSDOF 1
ENDMDL
MODEL 9
REMARK VINA RESULT:      -4.6      1.405      2.768
REMARK  1 active torsions:
REMARK  status: ('A' for Active; 'I' for Inactive)
REMARK    1  A    between atoms: N1_1  and  C2_3 
ROOT
ATOM      1  C1  UNK     1       1.538  36.898 236.501  1.00  0.00    -0.008 C 
ATOM      2  C2  UNK     1       1.781  38.050 237.572  1.00  0.00     0.164 C 
ATOM      3  C3  UNK     1       2.816  36.007 236.700  1.00  0.00    -0.004 C 
ATOM      4  C4  UNK     1       3.142  37.612 238.215  1.00  0.00     0.025 C 
ATOM      5  C5  UNK     1       3.903  37.043 237.013  1.00  0.00     0.012 C 
ATOM      6  C6  UNK     1       2.792  35.234 238.032  1.00  0.00     0.006 C 
ATOM      7  C7  UNK     1       3.002  36.337 239.074  1.00  0.00     0.007 C 
ATOM      8  C8  UNK     1       0.234  36.098 236.696  1.00  0.00     0.018 C 
ATOM      9  C9  UNK     1       1.501  37.398 235.036  1.00  0.00     0.018 C 
ATOM     10  C10 UNK     1       1.936  39.466 236.975  1.00  0.00     0.050 C 
ENDROOT
BRANCH   2  11
ATOM     11  N1  UNK     1       0.728  38.203 238.581  1.00  0.00     0.089 N 
ATOM     12  C11 UNK     1       0.188  39.551 238.557  1.00  0.00     0.307 C 
ATOM     13  H18 UNK     1       1.087  38.000 239.510  1.00  0.00     0.316 HD
ENDBRANCH   2  11
TORSDOF 1
ENDMDL
