MODEL 1
REMARK VINA RESULT:      -5.6      0.000      0.000
REMARK  7 active torsions:
REMARK  status: ('A' for Active; 'I' for Inactive)
REMARK    1  A    between atoms: N1_2  and  C3_5 
REMARK    2  A    between atoms: C1_3  and  C2_4 
REMARK    3  A    between atoms: C1_3  and  C4_6 
REMARK    4  A    between atoms: C1_3  and  C5_7 
REMARK    5  A    between atoms: C1_3  and  C6_8 
REMARK    6  A    between atoms: C2_4  and  C3_5 
REMARK    7  A    between atoms: C6_8  and  C8_10 
ROOT
ATOM      1  C1  UNK     1       1.505  35.357 236.275  1.00  0.00     0.076 C 
ENDROOT
BRANCH   1   2
ATOM      2  C2  UNK     1       2.677  36.290 236.762  1.00  0.00     0.062 C 
BRANCH   2   3
ATOM      3  C3  UNK     1       2.389  37.246 237.949  1.00  0.00     0.219 C 
ATOM      4  C7  UNK     1       3.221  36.843 239.170  1.00  0.00     0.043 C 
BRANCH   3   5
ATOM      5  N1  UNK     1       2.707  38.634 237.612  1.00  0.00     0.084 N 
ATOM      6  C13 UNK     1       3.598  39.210 238.618  1.00  0.00     0.309 C 
ATOM      7  C14 UNK     1       1.483  39.424 237.499  1.00  0.00     0.309 C 
ENDBRANCH   3   5
ENDBRANCH   2   3
ENDBRANCH   1   2
BRANCH   1   8
ATOM      8  C4  UNK     1       1.892  33.843 236.312  1.00  0.00    -0.037 A 
ATOM      9  C9  UNK     1       0.880  32.936 236.240  1.00  0.00     0.009 A 
ATOM     10  C16 UNK     1       1.225  31.584 236.273  1.00  0.00     0.001 A 
ATOM     11  C20 UNK     1       2.564  31.209 236.377  1.00  0.00     0.000 A 
ATOM     12  C18 UNK     1       3.559  32.186 236.448  1.00  0.00     0.001 A 
ATOM     13  C11 UNK     1       3.214  33.537 236.415  1.00  0.00     0.009 A 
ENDBRANCH   1   8
BRANCH   1  14
ATOM     14  C5  UNK     1       1.152  35.774 234.819  1.00  0.00    -0.037 A 
ATOM     15  C10 UNK     1       0.610  34.828 234.001  1.00  0.00     0.009 A 
ATOM     16  C17 UNK     1       0.295  35.202 232.695  1.00  0.00     0.001 A 
ATOM     17  C21 UNK     1       0.537  36.507 232.267  1.00  0.00     0.000 A 
ATOM     18  C19 UNK     1       1.093  37.438 233.144  1.00  0.00     0.001 A 
ATOM     19  C12 UNK     1       1.409  37.063 234.451  1.00  0.00     0.009 A 
ENDBRANCH   1  14
BRANCH   1  20
ATOM     20  C6  UNK     1       0.291  35.457 237.274  1.00  0.00     0.144 C 
ATOM     21  O1  UNK     1       0.324  34.943 238.396  1.00  0.00    -0.296 OA
BRANCH  20  22
ATOM     22  C8  UNK     1      -0.902  36.323 236.869  1.00  0.00     0.075 C 
ATOM     23  C15 UNK     1      -2.122  35.496 236.497  1.00  0.00     0.013 C 
ENDBRANCH  20  22
ENDBRANCH   1  20
TORSDOF 7
ENDMDL
MODEL 2
REMARK VINA RESULT:      -5.6      2.219      5.358
REMARK  7 active torsions:
REMARK  status: ('A' for Active; 'I' for Inactive)
REMARK    1  A    between atoms: N1_2  and  C3_5 
REMARK    2  A    between atoms: C1_3  and  C2_4 
REMARK    3  A    between atoms: C1_3  and  C4_6 
REMARK    4  A    between atoms: C1_3  and  C5_7 
REMARK    5  A    between atoms: C1_3  and  C6_8 
REMARK    6  A    between atoms: C2_4  and  C3_5 
REMARK    7  A    between atoms: C6_8  and  C8_10 
ROOT
ATOM      1  C1  UNK     1       0.431  37.040 235.872  1.00  0.00     0.076 C 
ENDROOT
BRANCH   1   2
ATOM      2  C2  UNK     1      -0.869  36.798 236.728  1.00  0.00     0.062 C 
BRANCH   2   3
ATOM      3  C3  UNK     1      -1.251  35.331 237.054  1.00  0.00     0.219 C 
ATOM      4  C7  UNK     1      -1.193  35.089 238.564  1.00  0.00     0.043 C 
BRANCH   3   5
ATOM      5  N1  UNK     1      -2.600  35.009 236.587  1.00  0.00     0.084 N 
ATOM      6  C13 UNK     1      -2.553  34.464 235.231  1.00  0.00     0.309 C 
ATOM      7  C14 UNK     1      -3.453  36.195 236.634  1.00  0.00     0.309 C 
ENDBRANCH   3   5
ENDBRANCH   2   3
ENDBRANCH   1   2
BRANCH   1   8
ATOM      8  C4  UNK     1       0.122  37.193 234.347  1.00  0.00    -0.037 A 
ATOM      9  C9  UNK     1       1.090  36.810 233.470  1.00  0.00     0.009 A 
ATOM     10  C16 UNK     1       0.814  36.947 232.109  1.00  0.00     0.001 A 
ATOM     11  C20 UNK     1      -0.415  37.460 231.695  1.00  0.00     0.000 A 
ATOM     12  C18 UNK     1      -1.368  37.837 232.642  1.00  0.00     0.001 A 
ATOM     13  C11 UNK     1      -1.093  37.700 234.002  1.00  0.00     0.009 A 
ENDBRANCH   1   8
BRANCH   1  14
ATOM     14  C5  UNK     1       1.370  35.821 236.098  1.00  0.00    -0.037 A 
ATOM     15  C10 UNK     1       2.422  35.980 236.951  1.00  0.00     0.009 A 
ATOM     16  C17 UNK     1       3.265  34.887 237.154  1.00  0.00     0.001 A 
ATOM     17  C21 UNK     1       3.017  33.685 236.493  1.00  0.00     0.000 A 
ATOM     18  C19 UNK     1       1.926  33.574 235.629  1.00  0.00     0.001 A 
ATOM     19  C12 UNK     1       1.084  34.668 235.427  1.00  0.00     0.009 A 
ENDBRANCH   1  14
BRANCH   1  20
ATOM     20  C6  UNK     1       1.081  38.421 236.262  1.00  0.00     0.144 C 
ATOM     21  O1  UNK     1       1.931  38.967 235.553  1.00  0.00    -0.296 OA
BRANCH  20  22
ATOM     22  C8  UNK     1       0.537  39.147 237.493  1.00  0.00     0.075 C 
ATOM     23  C15 UNK     1       1.534  39.172 238.641  1.00  0.00     0.013 C 
ENDBRANCH  20  22
ENDBRANCH   1  20
TORSDOF 7
ENDMDL
MODEL 3
REMARK VINA RESULT:      -5.6      1.430      3.793
REMARK  7 active torsions:
REMARK  status: ('A' for Active; 'I' for Inactive)
REMARK    1  A    between atoms: N1_2  and  C3_5 
REMARK    2  A    between atoms: C1_3  and  C2_4 
REMARK    3  A    between atoms: C1_3  and  C4_6 
REMARK    4  A    between atoms: C1_3  and  C5_7 
REMARK    5  A    between atoms: C1_3  and  C6_8 
REMARK    6  A    between atoms: C2_4  and  C3_5 
REMARK    7  A    between atoms: C6_8  and  C8_10 
ROOT
ATOM      1  C1  UNK     1       1.624  35.664 236.331  1.00  0.00     0.076 C 
ENDROOT
BRANCH   1   2
ATOM      2  C2  UNK     1       2.786  36.181 237.261  1.00  0.00     0.062 C 
BRANCH   2   3
ATOM      3  C3  UNK     1       2.389  36.990 238.523  1.00  0.00     0.219 C 
ATOM      4  C7  UNK     1       3.087  36.421 239.761  1.00  0.00     0.043 C 
BRANCH   3   5
ATOM      5  N1  UNK     1       2.755  38.401 238.396  1.00  0.00     0.084 N 
ATOM      6  C13 UNK     1       3.666  38.789 239.473  1.00  0.00     0.309 C 
ATOM      7  C14 UNK     1       1.559  39.242 238.409  1.00  0.00     0.309 C 
ENDBRANCH   3   5
ENDBRANCH   2   3
ENDBRANCH   1   2
BRANCH   1   8
ATOM      8  C4  UNK     1       0.246  35.615 237.068  1.00  0.00    -0.037 A 
ATOM      9  C9  UNK     1      -0.645  36.608 236.798  1.00  0.00     0.009 A 
ATOM     10  C16 UNK     1      -1.874  36.564 237.456  1.00  0.00     0.001 A 
ATOM     11  C20 UNK     1      -2.150  35.531 238.350  1.00  0.00     0.000 A 
ATOM     12  C18 UNK     1      -1.197  34.540 238.587  1.00  0.00     0.001 A 
ATOM     13  C11 UNK     1       0.033  34.583 237.929  1.00  0.00     0.009 A 
ENDBRANCH   1   8
BRANCH   1  14
ATOM     14  C5  UNK     1       2.014  34.237 235.850  1.00  0.00    -0.037 A 
ATOM     15  C10 UNK     1       1.176  33.611 234.976  1.00  0.00     0.009 A 
ATOM     16  C17 UNK     1       1.526  32.331 234.545  1.00  0.00     0.001 A 
ATOM     17  C21 UNK     1       2.698  31.736 235.010  1.00  0.00     0.000 A 
ATOM     18  C19 UNK     1       3.521  32.420 235.905  1.00  0.00     0.001 A 
ATOM     19  C12 UNK     1       3.171  33.700 236.335  1.00  0.00     0.009 A 
ENDBRANCH   1  14
BRANCH   1  20
ATOM     20  C6  UNK     1       1.383  36.684 235.156  1.00  0.00     0.144 C 
ATOM     21  O1  UNK     1       1.869  37.819 235.165  1.00  0.00    -0.296 OA
BRANCH  20  22
ATOM     22  C8  UNK     1       0.625  36.191 233.922  1.00  0.00     0.075 C 
ATOM     23  C15 UNK     1       1.039  36.922 232.655  1.00  0.00     0.013 C 
ENDBRANCH  20  22
ENDBRANCH   1  20
TORSDOF 7
ENDMDL
MODEL 4
REMARK VINA RESULT:      -5.5      2.278      5.563
REMARK  7 active torsions:
REMARK  status: ('A' for Active; 'I' for Inactive)
REMARK    1  A    between atoms: N1_2  and  C3_5 
REMARK    2  A    between atoms: C1_3  and  C2_4 
REMARK    3  A    between atoms: C1_3  and  C4_6 
REMARK    4  A    between atoms: C1_3  and  C5_7 
REMARK    5  A    between atoms: C1_3  and  C6_8 
REMARK    6  A    between atoms: C2_4  and  C3_5 
REMARK    7  A    between atoms: C6_8  and  C8_10 
ROOT
ATOM      1  C1  UNK     1       0.356  36.664 235.439  1.00  0.00     0.076 C 
ENDROOT
BRANCH   1   2
ATOM      2  C2  UNK     1       0.993  35.245 235.190  1.00  0.00     0.062 C 
BRANCH   2   3
ATOM      3  C3  UNK     1       0.040  34.091 234.784  1.00  0.00     0.219 C 
ATOM      4  C7  UNK     1       0.398  33.572 233.388  1.00  0.00     0.043 C 
BRANCH   3   5
ATOM      5  N1  UNK     1       0.115  32.974 235.725  1.00  0.00     0.084 N 
ATOM      6  C13 UNK     1      -1.196  32.723 236.323  1.00  0.00     0.309 C 
ATOM      7  C14 UNK     1       1.108  33.245 236.762  1.00  0.00     0.309 C 
ENDBRANCH   3   5
ENDBRANCH   2   3
ENDBRANCH   1   2
BRANCH   1   8
ATOM      8  C4  UNK     1       1.260  37.578 236.328  1.00  0.00    -0.037 A 
ATOM      9  C9  UNK     1       0.734  38.760 236.751  1.00  0.00     0.009 A 
ATOM     10  C16 UNK     1       1.541  39.574 237.546  1.00  0.00     0.001 A 
ATOM     11  C20 UNK     1       2.833  39.167 237.876  1.00  0.00     0.000 A 
ATOM     12  C18 UNK     1       3.318  37.943 237.412  1.00  0.00     0.001 A 
ATOM     13  C11 UNK     1       2.511  37.128 236.619  1.00  0.00     0.009 A 
ENDBRANCH   1   8
BRANCH   1  14
ATOM     14  C5  UNK     1      -1.016  36.441 236.138  1.00  0.00    -0.037 A 
ATOM     15  C10 UNK     1      -1.015  36.240 237.486  1.00  0.00     0.009 A 
ATOM     16  C17 UNK     1      -2.246  36.039 238.113  1.00  0.00     0.001 A 
ATOM     17  C21 UNK     1      -3.420  36.049 237.361  1.00  0.00     0.000 A 
ATOM     18  C19 UNK     1      -3.365  36.259 235.983  1.00  0.00     0.001 A 
ATOM     19  C12 UNK     1      -2.135  36.460 235.357  1.00  0.00     0.009 A 
ENDBRANCH   1  14
BRANCH   1  20
ATOM     20  C6  UNK     1       0.253  37.452 234.079  1.00  0.00     0.144 C 
ATOM     21  O1  UNK     1      -0.592  38.333 233.896  1.00  0.00    -0.296 OA
BRANCH  20  22
ATOM     22  C8  UNK     1       1.319  37.188 233.015  1.00  0.00     0.075 C 
ATOM     23  C15 UNK     1       0.718  36.779 231.679  1.00  0.00     0.013 C 
ENDBRANCH  20  22
ENDBRANCH   1  20
TORSDOF 7
ENDMDL
MODEL 5
REMARK VINA RESULT:      -5.5      1.613      4.233
REMARK  7 active torsions:
REMARK  status: ('A' for Active; 'I' for Inactive)
REMARK    1  A    between atoms: N1_2  and  C3_5 
REMARK    2  A    between atoms: C1_3  and  C2_4 
REMARK    3  A    between atoms: C1_3  and  C4_6 
REMARK    4  A    between atoms: C1_3  and  C5_7 
REMARK    5  A    between atoms: C1_3  and  C6_8 
REMARK    6  A    between atoms: C2_4  and  C3_5 
REMARK    7  A    between atoms: C6_8  and  C8_10 
ROOT
ATOM      1  C1  UNK     1       0.315  36.477 236.315  1.00  0.00     0.076 C 
ENDROOT
BRANCH   1   2
ATOM      2  C2  UNK     1       1.007  37.130 237.570  1.00  0.00     0.062 C 
BRANCH   2   3
ATOM      3  C3  UNK     1       1.401  38.627 237.474  1.00  0.00     0.219 C 
ATOM      4  C7  UNK     1       0.415  39.489 238.269  1.00  0.00     0.043 C 
BRANCH   3   5
ATOM      5  N1  UNK     1       2.746  38.865 237.998  1.00  0.00     0.084 N 
ATOM      6  C13 UNK     1       3.706  37.961 237.366  1.00  0.00     0.309 C 
ATOM      7  C14 UNK     1       2.766  38.700 239.450  1.00  0.00     0.309 C 
ENDBRANCH   3   5
ENDBRANCH   2   3
ENDBRANCH   1   2
BRANCH   1   8
ATOM      8  C4  UNK     1      -1.202  36.185 236.555  1.00  0.00    -0.037 A 
ATOM      9  C9  UNK     1      -1.943  35.795 235.481  1.00  0.00     0.009 A 
ATOM     10  C16 UNK     1      -3.296  35.535 235.695  1.00  0.00     0.001 A 
ATOM     11  C20 UNK     1      -3.841  35.678 236.971  1.00  0.00     0.000 A 
ATOM     12  C18 UNK     1      -3.032  36.081 238.033  1.00  0.00     0.001 A 
ATOM     13  C11 UNK     1      -1.678  36.341 237.820  1.00  0.00     0.009 A 
ENDBRANCH   1   8
BRANCH   1  14
ATOM     14  C5  UNK     1       1.064  35.148 236.011  1.00  0.00    -0.037 A 
ATOM     15  C10 UNK     1       0.525  34.316 235.075  1.00  0.00     0.009 A 
ATOM     16  C17 UNK     1       1.197  33.124 234.802  1.00  0.00     0.001 A 
ATOM     17  C21 UNK     1       2.377  32.820 235.479  1.00  0.00     0.000 A 
ATOM     18  C19 UNK     1       2.887  33.706 236.427  1.00  0.00     0.001 A 
ATOM     19  C12 UNK     1       2.215  34.898 236.700  1.00  0.00     0.009 A 
ENDBRANCH   1  14
BRANCH   1  20
ATOM     20  C6  UNK     1       0.314  37.494 235.113  1.00  0.00     0.144 C 
ATOM     21  O1  UNK     1      -0.554  38.363 234.993  1.00  0.00    -0.296 OA
BRANCH  20  22
ATOM     22  C8  UNK     1       1.500  37.464 234.148  1.00  0.00     0.075 C 
ATOM     23  C15 UNK     1       1.096  37.050 232.742  1.00  0.00     0.013 C 
ENDBRANCH  20  22
ENDBRANCH   1  20
TORSDOF 7
ENDMDL
MODEL 6
REMARK VINA RESULT:      -5.5      2.397      4.836
REMARK  7 active torsions:
REMARK  status: ('A' for Active; 'I' for Inactive)
REMARK    1  A    between atoms: N1_2  and  C3_5 
REMARK    2  A    between atoms: C1_3  and  C2_4 
REMARK    3  A    between atoms: C1_3  and  C4_6 
REMARK    4  A    between atoms: C1_3  and  C5_7 
REMARK    5  A    between atoms: C1_3  and  C6_8 
REMARK    6  A    between atoms: C2_4  and  C3_5 
REMARK    7  A    between atoms: C6_8  and  C8_10 
ROOT
ATOM      1  C1  UNK     1       0.189  36.236 236.125  1.00  0.00     0.076 C 
ENDROOT
BRANCH   1   2
ATOM      2  C2  UNK     1      -1.258  36.810 236.362  1.00  0.00     0.062 C 
BRANCH   2   3
ATOM      3  C3  UNK     1      -2.428  36.151 235.586  1.00  0.00     0.219 C 
ATOM      4  C7  UNK     1      -3.423  35.516 236.561  1.00  0.00     0.043 C 
BRANCH   3   5
ATOM      5  N1  UNK     1      -3.147  37.125 234.764  1.00  0.00     0.084 N 
ATOM      6  C13 UNK     1      -4.574  37.103 235.080  1.00  0.00     0.309 C 
ATOM      7  C14 UNK     1      -2.931  36.854 233.344  1.00  0.00     0.309 C 
ENDBRANCH   3   5
ENDBRANCH   2   3
ENDBRANCH   1   2
BRANCH   1   8
ATOM      8  C4  UNK     1       1.302  37.155 236.725  1.00  0.00    -0.037 A 
ATOM      9  C9  UNK     1       2.588  36.715 236.647  1.00  0.00     0.009 A 
ATOM     10  C16 UNK     1       3.581  37.537 237.182  1.00  0.00     0.001 A 
ATOM     11  C20 UNK     1       3.238  38.755 237.767  1.00  0.00     0.000 A 
ATOM     12  C18 UNK     1       1.902  39.153 237.817  1.00  0.00     0.001 A 
ATOM     13  C11 UNK     1       0.908  38.333 237.282  1.00  0.00     0.009 A 
ENDBRANCH   1   8
BRANCH   1  14
ATOM     14  C5  UNK     1       0.390  36.100 234.589  1.00  0.00    -0.037 A 
ATOM     15  C10 UNK     1       0.789  37.208 233.901  1.00  0.00     0.009 A 
ATOM     16  C17 UNK     1       0.968  37.086 232.523  1.00  0.00     0.001 A 
ATOM     17  C21 UNK     1       0.739  35.861 231.896  1.00  0.00     0.000 A 
ATOM     18  C19 UNK     1       0.332  34.758 232.647  1.00  0.00     0.001 A 
ATOM     19  C12 UNK     1       0.153  34.880 234.025  1.00  0.00     0.009 A 
ENDBRANCH   1  14
BRANCH   1  20
ATOM     20  C6  UNK     1       0.363  34.881 236.909  1.00  0.00     0.144 C 
ATOM     21  O1  UNK     1       1.087  33.972 236.491  1.00  0.00    -0.296 OA
BRANCH  20  22
ATOM     22  C8  UNK     1      -0.294  34.757 238.284  1.00  0.00     0.075 C 
ATOM     23  C15 UNK     1       0.694  34.957 239.422  1.00  0.00     0.013 C 
ENDBRANCH  20  22
ENDBRANCH   1  20
TORSDOF 7
ENDMDL
MODEL 7
REMARK VINA RESULT:      -5.4      1.864      4.529
REMARK  7 active torsions:
REMARK  status: ('A' for Active; 'I' for Inactive)
REMARK    1  A    between atoms: N1_2  and  C3_5 
REMARK    2  A    between atoms: C1_3  and  C2_4 
REMARK    3  A    between atoms: C1_3  and  C4_6 
REMARK    4  A    between atoms: C1_3  and  C5_7 
REMARK    5  A    between atoms: C1_3  and  C6_8 
REMARK    6  A    between atoms: C2_4  and  C3_5 
REMARK    7  A    between atoms: C6_8  and  C8_10 
ROOT
ATOM      1  C1  UNK     1       0.380  35.943 236.219  1.00  0.00     0.076 C 
ENDROOT
BRANCH   1   2
ATOM      2  C2  UNK     1       0.689  34.511 236.800  1.00  0.00     0.062 C 
BRANCH   2   3
ATOM      3  C3  UNK     1       1.765  34.404 237.911  1.00  0.00     0.219 C 
ATOM      4  C7  UNK     1       1.102  34.352 239.290  1.00  0.00     0.043 C 
BRANCH   3   5
ATOM      5  N1  UNK     1       2.587  33.204 237.751  1.00  0.00     0.084 N 
ATOM      6  C13 UNK     1       3.586  33.125 238.816  1.00  0.00     0.309 C 
ATOM      7  C14 UNK     1       3.235  33.200 236.440  1.00  0.00     0.309 C 
ENDBRANCH   3   5
ENDBRANCH   2   3
ENDBRANCH   1   2
BRANCH   1   8
ATOM      8  C4  UNK     1       0.532  36.002 234.665  1.00  0.00    -0.037 A 
ATOM      9  C9  UNK     1       0.217  34.881 233.961  1.00  0.00     0.009 A 
ATOM     10  C16 UNK     1       0.352  34.934 232.573  1.00  0.00     0.001 A 
ATOM     11  C20 UNK     1       0.796  36.105 231.960  1.00  0.00     0.000 A 
ATOM     12  C18 UNK     1       1.104  37.224 232.735  1.00  0.00     0.001 A 
ATOM     13  C11 UNK     1       0.969  37.172 234.122  1.00  0.00     0.009 A 
ENDBRANCH   1   8
BRANCH   1  14
ATOM     14  C5  UNK     1       1.375  36.937 236.883  1.00  0.00    -0.037 A 
ATOM     15  C10 UNK     1       0.864  37.874 237.732  1.00  0.00     0.009 A 
ATOM     16  C17 UNK     1       1.756  38.766 238.326  1.00  0.00     0.001 A 
ATOM     17  C21 UNK     1       3.119  38.681 238.044  1.00  0.00     0.000 A 
ATOM     18  C19 UNK     1       3.591  37.703 237.168  1.00  0.00     0.001 A 
ATOM     19  C12 UNK     1       2.698  36.811 236.574  1.00  0.00     0.009 A 
ENDBRANCH   1  14
BRANCH   1  20
ATOM     20  C6  UNK     1      -1.133  36.305 236.461  1.00  0.00     0.144 C 
ATOM     21  O1  UNK     1      -1.732  37.117 235.750  1.00  0.00    -0.296 OA
BRANCH  20  22
ATOM     22  C8  UNK     1      -1.895  35.524 237.532  1.00  0.00     0.075 C 
ATOM     23  C15 UNK     1      -2.981  36.356 238.196  1.00  0.00     0.013 C 
ENDBRANCH  20  22
ENDBRANCH   1  20
TORSDOF 7
ENDMDL
MODEL 8
REMARK VINA RESULT:      -5.3      1.560      2.209
REMARK  7 active torsions:
REMARK  status: ('A' for Active; 'I' for Inactive)
REMARK    1  A    between atoms: N1_2  and  C3_5 
REMARK    2  A    between atoms: C1_3  and  C2_4 
REMARK    3  A    between atoms: C1_3  and  C4_6 
REMARK    4  A    between atoms: C1_3  and  C5_7 
REMARK    5  A    between atoms: C1_3  and  C6_8 
REMARK    6  A    between atoms: C2_4  and  C3_5 
REMARK    7  A    between atoms: C6_8  and  C8_10 
ROOT
ATOM      1  C1  UNK     1       0.797  35.038 235.319  1.00  0.00     0.076 C 
ENDROOT
BRANCH   1   2
ATOM      2  C2  UNK     1       1.445  36.267 236.061  1.00  0.00     0.062 C 
BRANCH   2   3
ATOM      3  C3  UNK     1       0.620  36.942 237.187  1.00  0.00     0.219 C 
ATOM      4  C7  UNK     1       1.281  36.703 238.548  1.00  0.00     0.043 C 
BRANCH   3   5
ATOM      5  N1  UNK     1       0.505  38.386 236.979  1.00  0.00     0.084 N 
ATOM      6  C13 UNK     1       1.719  38.908 236.353  1.00  0.00     0.309 C 
ATOM      7  C14 UNK     1       0.250  39.066 238.248  1.00  0.00     0.309 C 
ENDBRANCH   3   5
ENDBRANCH   2   3
ENDBRANCH   1   2
BRANCH   1   8
ATOM      8  C4  UNK     1       1.657  33.739 235.450  1.00  0.00    -0.037 A 
ATOM      9  C9  UNK     1       2.697  33.762 236.328  1.00  0.00     0.009 A 
ATOM     10  C16 UNK     1       3.464  32.603 236.444  1.00  0.00     0.001 A 
ATOM     11  C20 UNK     1       3.154  31.481 235.677  1.00  0.00     0.000 A 
ATOM     12  C18 UNK     1       2.076  31.517 234.792  1.00  0.00     0.001 A 
ATOM     13  C11 UNK     1       1.307  32.676 234.676  1.00  0.00     0.009 A 
ENDBRANCH   1   8
BRANCH   1  14
ATOM     14  C5  UNK     1       0.651  35.424 233.820  1.00  0.00    -0.037 A 
ATOM     15  C10 UNK     1       1.051  36.672 233.445  1.00  0.00     0.009 A 
ATOM     16  C17 UNK     1       0.920  37.019 232.100  1.00  0.00     0.001 A 
ATOM     17  C21 UNK     1       0.394  36.101 231.192  1.00  0.00     0.000 A 
ATOM     18  C19 UNK     1      -0.001  34.835 231.628  1.00  0.00     0.001 A 
ATOM     19  C12 UNK     1       0.131  34.489 232.973  1.00  0.00     0.009 A 
ENDBRANCH   1  14
BRANCH   1  20
ATOM     20  C6  UNK     1      -0.566  34.653 236.009  1.00  0.00     0.144 C 
ATOM     21  O1  UNK     1      -1.647  35.105 235.619  1.00  0.00    -0.296 OA
BRANCH  20  22
ATOM     22  C8  UNK     1      -0.538  33.593 237.111  1.00  0.00     0.075 C 
ATOM     23  C15 UNK     1      -1.332  34.010 238.339  1.00  0.00     0.013 C 
ENDBRANCH  20  22
ENDBRANCH   1  20
TORSDOF 7
ENDMDL
MODEL 9
REMARK VINA RESULT:      -5.3      2.158      4.508
REMARK  7 active torsions:
REMARK  status: ('A' for Active; 'I' for Inactive)
REMARK    1  A    between atoms: N1_2  and  C3_5 
REMARK    2  A    between atoms: C1_3  and  C2_4 
REMARK    3  A    between atoms: C1_3  and  C4_6 
REMARK    4  A    between atoms: C1_3  and  C5_7 
REMARK    5  A    between atoms: C1_3  and  C6_8 
REMARK    6  A    between atoms: C2_4  and  C3_5 
REMARK    7  A    between atoms: C6_8  and  C8_10 
ROOT
ATOM      1  C1  UNK     1       0.554  36.176 236.239  1.00  0.00     0.076 C 
ENDROOT
BRANCH   1   2
ATOM      2  C2  UNK     1      -0.727  35.938 237.124  1.00  0.00     0.062 C 
BRANCH   2   3
ATOM      3  C3  UNK     1      -0.839  34.587 237.876  1.00  0.00     0.219 C 
ATOM      4  C7  UNK     1      -0.259  34.714 239.287  1.00  0.00     0.043 C 
BRANCH   3   5
ATOM      5  N1  UNK     1      -2.230  34.146 237.987  1.00  0.00     0.084 N 
ATOM      6  C13 UNK     1      -3.121  35.097 237.324  1.00  0.00     0.309 C 
ATOM      7  C14 UNK     1      -2.604  33.987 239.392  1.00  0.00     0.309 C 
ENDBRANCH   3   5
ENDBRANCH   2   3
ENDBRANCH   1   2
BRANCH   1   8
ATOM      8  C4  UNK     1       1.363  34.862 235.993  1.00  0.00    -0.037 A 
ATOM      9  C9  UNK     1       2.461  34.647 236.768  1.00  0.00     0.009 A 
ATOM     10  C16 UNK     1       3.183  33.474 236.548  1.00  0.00     0.001 A 
ATOM     11  C20 UNK     1       2.770  32.575 235.566  1.00  0.00     0.000 A 
ATOM     12  C18 UNK     1       1.635  32.849 234.802  1.00  0.00     0.001 A 
ATOM     13  C11 UNK     1       0.912  34.022 235.021  1.00  0.00     0.009 A 
ENDBRANCH   1   8
BRANCH   1  14
ATOM     14  C5  UNK     1       1.446  37.212 236.982  1.00  0.00    -0.037 A 
ATOM     15  C10 UNK     1       2.768  37.263 236.652  1.00  0.00     0.009 A 
ATOM     16  C17 UNK     1       3.568  38.191 237.319  1.00  0.00     0.001 A 
ATOM     17  C21 UNK     1       3.008  39.025 238.286  1.00  0.00     0.000 A 
ATOM     18  C19 UNK     1       1.649  38.932 238.586  1.00  0.00     0.001 A 
ATOM     19  C12 UNK     1       0.849  38.004 237.919  1.00  0.00     0.009 A 
ENDBRANCH   1  14
BRANCH   1  20
ATOM     20  C6  UNK     1       0.130  36.629 234.792  1.00  0.00     0.144 C 
ATOM     21  O1  UNK     1      -1.038  36.553 234.399  1.00  0.00    -0.296 OA
BRANCH  20  22
ATOM     22  C8  UNK     1       1.187  37.295 233.909  1.00  0.00     0.075 C 
ATOM     23  C15 UNK     1       1.077  36.874 232.452  1.00  0.00     0.013 C 
ENDBRANCH  20  22
ENDBRANCH   1  20
TORSDOF 7
ENDMDL
