MODEL 1
REMARK VINA RESULT:      -5.6      0.000      0.000
REMARK  8 active torsions:
REMARK  status: ('A' for Active; 'I' for Inactive)
REMARK    1  A    between atoms: O1_2  and  C9_15 
REMARK    2  A    between atoms: N1_4  and  C1_7 
REMARK    3  A    between atoms: N1_4  and  C2_8 
REMARK    4  A    between atoms: N1_4  and  C3_9 
REMARK    5  A    between atoms: N2_5  and  C4_10 
REMARK       I    between atoms: N2_5  and  C7_13 
REMARK    6  A    between atoms: N3_6  and  C12_18 
REMARK    7  A    between atoms: C1_7  and  C4_10 
REMARK    8  A    between atoms: C7_13  and  C8_14 
ROOT
ATOM      1 Cl1  UNK     1      -3.434  37.852 230.696  1.00  0.00    -0.082 Cl
ATOM      2  C8  UNK     1      -2.696  41.276 228.825  1.00  0.00     0.067 A 
ATOM      3  C9  UNK     1      -3.707  41.382 227.893  1.00  0.00     0.086 A 
ATOM      4  C10 UNK     1      -2.603  40.202 229.688  1.00  0.00     0.046 A 
ATOM      5  C11 UNK     1      -4.667  40.373 227.820  1.00  0.00     0.068 A 
ATOM      6  C12 UNK     1      -4.595  39.278 228.680  1.00  0.00     0.050 A 
ATOM      7  C13 UNK     1      -3.561  39.192 229.614  1.00  0.00     0.061 A 
ENDROOT
BRANCH   2   8
ATOM      8  C7  UNK     1      -1.663  42.340 228.919  1.00  0.00     0.254 C 
ATOM      9  O2  UNK     1      -1.378  42.805 230.020  1.00  0.00    -0.268 OA
ATOM     10  N2  UNK     1      -1.067  42.722 227.723  1.00  0.00    -0.355 N 
ATOM     11  H9  UNK     1      -1.398  42.345 226.841  1.00  0.00     0.162 HD
BRANCH  10  12
ATOM     12  C4  UNK     1      -0.035  43.720 227.653  1.00  0.00     0.153 C 
BRANCH  12  13
ATOM     13  C1  UNK     1       1.224  43.262 228.373  1.00  0.00     0.292 C 
BRANCH  13  14
ATOM     14  N1  UNK     1       1.850  44.386 229.068  1.00  0.00     0.089 N 
BRANCH  14  15
ATOM     15  C2  UNK     1       0.843  45.374 229.453  1.00  0.00     0.268 C 
ATOM     16  C5  UNK     1       1.186  46.749 228.907  1.00  0.00     0.037 C 
ENDBRANCH  14  15
BRANCH  14  17
ATOM     17  C3  UNK     1       2.582  43.916 230.245  1.00  0.00     0.268 C 
ATOM     18  C6  UNK     1       4.081  44.071 230.056  1.00  0.00     0.037 C 
ENDBRANCH  14  17
ENDBRANCH  13  14
ENDBRANCH  12  13
ENDBRANCH  10  12
ENDBRANCH   2   8
BRANCH   3  19
ATOM     19  O1  UNK     1      -3.794  42.444 227.043  1.00  0.00    -0.355 OA
ATOM     20  C14 UNK     1      -5.040  42.639 226.375  1.00  0.00     0.210 C 
ENDBRANCH   3  19
BRANCH   6  21
ATOM     21  N3  UNK     1      -5.580  38.270 228.581  1.00  0.00    -0.398 N 
ATOM     22  H18 UNK     1      -6.415  38.428 228.032  1.00  0.00     0.156 HD
ATOM     23  H19 UNK     1      -5.450  37.392 229.065  1.00  0.00     0.156 HD
ENDBRANCH   6  21
TORSDOF 8
ENDMDL
MODEL 2
REMARK VINA RESULT:      -5.3      3.579      6.406
REMARK  8 active torsions:
REMARK  status: ('A' for Active; 'I' for Inactive)
REMARK    1  A    between atoms: O1_2  and  C9_15 
REMARK    2  A    between atoms: N1_4  and  C1_7 
REMARK    3  A    between atoms: N1_4  and  C2_8 
REMARK    4  A    between atoms: N1_4  and  C3_9 
REMARK    5  A    between atoms: N2_5  and  C4_10 
REMARK       I    between atoms: N2_5  and  C7_13 
REMARK    6  A    between atoms: N3_6  and  C12_18 
REMARK    7  A    between atoms: C1_7  and  C4_10 
REMARK    8  A    between atoms: C7_13  and  C8_14 
ROOT
ATOM      1 Cl1  UNK     1       2.432  44.218 229.853  1.00  0.00    -0.082 Cl
ATOM      2  C8  UNK     1      -0.896  42.269 228.907  1.00  0.00     0.067 A 
ATOM      3  C9  UNK     1      -1.279  42.812 227.698  1.00  0.00     0.086 A 
ATOM      4  C10 UNK     1       0.236  42.691 229.575  1.00  0.00     0.046 A 
ATOM      5  C11 UNK     1      -0.497  43.818 227.131  1.00  0.00     0.068 A 
ATOM      6  C12 UNK     1       0.652  44.260 227.786  1.00  0.00     0.050 A 
ATOM      7  C13 UNK     1       1.018  43.697 229.009  1.00  0.00     0.061 A 
ENDROOT
BRANCH   2   8
ATOM      8  C7  UNK     1      -1.716  41.198 229.529  1.00  0.00     0.254 C 
ATOM      9  O2  UNK     1      -2.930  41.355 229.633  1.00  0.00    -0.268 OA
ATOM     10  N2  UNK     1      -1.030  40.059 229.936  1.00  0.00    -0.355 N 
ATOM     11  H9  UNK     1      -0.017  40.023 229.881  1.00  0.00     0.162 HD
BRANCH  10  12
ATOM     12  C4  UNK     1      -1.687  38.928 230.531  1.00  0.00     0.153 C 
BRANCH  12  13
ATOM     13  C1  UNK     1      -1.900  39.136 232.022  1.00  0.00     0.292 C 
BRANCH  13  14
ATOM     14  N1  UNK     1      -1.014  38.263 232.790  1.00  0.00     0.089 N 
BRANCH  14  15
ATOM     15  C2  UNK     1      -1.714  37.718 233.953  1.00  0.00     0.268 C 
ATOM     16  C5  UNK     1      -3.220  37.840 233.794  1.00  0.00     0.037 C 
ENDBRANCH  14  15
BRANCH  14  17
ATOM     17  C3  UNK     1      -0.506  37.180 231.946  1.00  0.00     0.268 C 
ATOM     18  C6  UNK     1       0.932  36.839 232.297  1.00  0.00     0.037 C 
ENDBRANCH  14  17
ENDBRANCH  13  14
ENDBRANCH  12  13
ENDBRANCH  10  12
ENDBRANCH   2   8
BRANCH   3  19
ATOM     19  O1  UNK     1      -2.400  42.393 227.043  1.00  0.00    -0.355 OA
ATOM     20  C14 UNK     1      -2.506  42.731 225.662  1.00  0.00     0.210 C 
ENDBRANCH   3  19
BRANCH   6  21
ATOM     21  N3  UNK     1       1.423  45.282 227.187  1.00  0.00    -0.398 N 
ATOM     22  H18 UNK     1       1.718  46.081 227.732  1.00  0.00     0.156 HD
ATOM     23  H19 UNK     1       1.677  45.212 226.211  1.00  0.00     0.156 HD
ENDBRANCH   6  21
TORSDOF 8
ENDMDL
MODEL 3
REMARK VINA RESULT:      -5.3      4.283      6.469
REMARK  8 active torsions:
REMARK  status: ('A' for Active; 'I' for Inactive)
REMARK    1  A    between atoms: O1_2  and  C9_15 
REMARK    2  A    between atoms: N1_4  and  C1_7 
REMARK    3  A    between atoms: N1_4  and  C2_8 
REMARK    4  A    between atoms: N1_4  and  C3_9 
REMARK    5  A    between atoms: N2_5  and  C4_10 
REMARK       I    between atoms: N2_5  and  C7_13 
REMARK    6  A    between atoms: N3_6  and  C12_18 
REMARK    7  A    between atoms: C1_7  and  C4_10 
REMARK    8  A    between atoms: C7_13  and  C8_14 
ROOT
ATOM      1 Cl1  UNK     1       1.776  42.380 227.865  1.00  0.00    -0.082 Cl
ATOM      2  C8  UNK     1      -1.393  40.615 229.481  1.00  0.00     0.067 A 
ATOM      3  C9  UNK     1      -2.468  41.336 229.003  1.00  0.00     0.086 A 
ATOM      4  C10 UNK     1      -0.092  40.925 229.139  1.00  0.00     0.046 A 
ATOM      5  C11 UNK     1      -2.233  42.412 228.146  1.00  0.00     0.068 A 
ATOM      6  C12 UNK     1      -0.927  42.744 227.787  1.00  0.00     0.050 A 
ATOM      7  C13 UNK     1       0.144  42.000 228.284  1.00  0.00     0.061 A 
ENDROOT
BRANCH   2   8
ATOM      8  C7  UNK     1      -1.622  39.467 230.395  1.00  0.00     0.254 C 
ATOM      9  O2  UNK     1      -1.316  38.336 230.026  1.00  0.00    -0.268 OA
ATOM     10  N2  UNK     1      -2.159  39.773 231.640  1.00  0.00    -0.355 N 
ATOM     11  H9  UNK     1      -2.451  40.721 231.855  1.00  0.00     0.162 HD
BRANCH  10  12
ATOM     12  C4  UNK     1      -2.415  38.775 232.643  1.00  0.00     0.153 C 
BRANCH  12  13
ATOM     13  C1  UNK     1      -1.243  38.646 233.604  1.00  0.00     0.292 C 
BRANCH  13  14
ATOM     14  N1  UNK     1      -0.771  37.263 233.647  1.00  0.00     0.089 N 
BRANCH  14  15
ATOM     15  C2  UNK     1       0.679  37.211 233.460  1.00  0.00     0.268 C 
ATOM     16  C5  UNK     1       1.035  36.741 232.061  1.00  0.00     0.037 C 
ENDBRANCH  14  15
BRANCH  14  17
ATOM     17  C3  UNK     1      -1.146  36.634 234.914  1.00  0.00     0.268 C 
ATOM     18  C6  UNK     1       0.071  36.068 235.627  1.00  0.00     0.037 C 
ENDBRANCH  14  17
ENDBRANCH  13  14
ENDBRANCH  12  13
ENDBRANCH  10  12
ENDBRANCH   2   8
BRANCH   3  19
ATOM     19  O1  UNK     1      -3.752  41.028 229.345  1.00  0.00    -0.355 OA
ATOM     20  C14 UNK     1      -4.649  40.723 228.279  1.00  0.00     0.210 C 
ENDBRANCH   3  19
BRANCH   6  21
ATOM     21  N3  UNK     1      -0.720  43.840 226.918  1.00  0.00    -0.398 N 
ATOM     22  H18 UNK     1       0.186  44.287 226.872  1.00  0.00     0.156 HD
ATOM     23  H19 UNK     1      -1.483  44.177 226.346  1.00  0.00     0.156 HD
ENDBRANCH   6  21
TORSDOF 8
ENDMDL
MODEL 4
REMARK VINA RESULT:      -5.3      2.894      6.337
REMARK  8 active torsions:
REMARK  status: ('A' for Active; 'I' for Inactive)
REMARK    1  A    between atoms: O1_2  and  C9_15 
REMARK    2  A    between atoms: N1_4  and  C1_7 
REMARK    3  A    between atoms: N1_4  and  C2_8 
REMARK    4  A    between atoms: N1_4  and  C3_9 
REMARK    5  A    between atoms: N2_5  and  C4_10 
REMARK       I    between atoms: N2_5  and  C7_13 
REMARK    6  A    between atoms: N3_6  and  C12_18 
REMARK    7  A    between atoms: C1_7  and  C4_10 
REMARK    8  A    between atoms: C7_13  and  C8_14 
ROOT
ATOM      1 Cl1  UNK     1       2.945  43.693 229.294  1.00  0.00    -0.082 Cl
ATOM      2  C8  UNK     1      -0.729  42.216 228.996  1.00  0.00     0.067 A 
ATOM      3  C9  UNK     1      -1.286  42.895 227.932  1.00  0.00     0.086 A 
ATOM      4  C10 UNK     1       0.563  42.451 229.420  1.00  0.00     0.046 A 
ATOM      5  C11 UNK     1      -0.520  43.850 227.264  1.00  0.00     0.068 A 
ATOM      6  C12 UNK     1       0.788  44.105 227.674  1.00  0.00     0.050 A 
ATOM      7  C13 UNK     1       1.330  43.405 228.753  1.00  0.00     0.061 A 
ENDROOT
BRANCH   2   8
ATOM      8  C7  UNK     1      -1.529  41.196 229.721  1.00  0.00     0.254 C 
ATOM      9  O2  UNK     1      -1.331  41.020 230.921  1.00  0.00    -0.268 OA
ATOM     10  N2  UNK     1      -2.482  40.517 228.970  1.00  0.00    -0.355 N 
ATOM     11  H9  UNK     1      -2.547  40.664 227.969  1.00  0.00     0.162 HD
BRANCH  10  12
ATOM     12  C4  UNK     1      -3.350  39.520 229.535  1.00  0.00     0.153 C 
BRANCH  12  13
ATOM     13  C1  UNK     1      -2.752  38.128 229.398  1.00  0.00     0.292 C 
BRANCH  13  14
ATOM     14  N1  UNK     1      -2.500  37.551 230.717  1.00  0.00     0.089 N 
BRANCH  14  15
ATOM     15  C2  UNK     1      -1.084  37.669 231.066  1.00  0.00     0.268 C 
ATOM     16  C5  UNK     1      -0.200  37.475 229.845  1.00  0.00     0.037 C 
ENDBRANCH  14  15
BRANCH  14  17
ATOM     17  C3  UNK     1      -3.331  38.204 231.729  1.00  0.00     0.268 C 
ATOM     18  C6  UNK     1      -2.550  38.444 233.010  1.00  0.00     0.037 C 
ENDBRANCH  14  17
ENDBRANCH  13  14
ENDBRANCH  12  13
ENDBRANCH  10  12
ENDBRANCH   2   8
BRANCH   3  19
ATOM     19  O1  UNK     1      -2.564  42.661 227.517  1.00  0.00    -0.355 OA
ATOM     20  C14 UNK     1      -2.932  43.171 226.237  1.00  0.00     0.210 C 
ENDBRANCH   3  19
BRANCH   6  21
ATOM     21  N3  UNK     1       1.540  45.079 226.978  1.00  0.00    -0.398 N 
ATOM     22  H18 UNK     1       1.112  45.619 226.238  1.00  0.00     0.156 HD
ATOM     23  H19 UNK     1       2.511  45.231 227.221  1.00  0.00     0.156 HD
ENDBRANCH   6  21
TORSDOF 8
ENDMDL
MODEL 5
REMARK VINA RESULT:      -5.2      8.473      9.832
REMARK  8 active torsions:
REMARK  status: ('A' for Active; 'I' for Inactive)
REMARK    1  A    between atoms: O1_2  and  C9_15 
REMARK    2  A    between atoms: N1_4  and  C1_7 
REMARK    3  A    between atoms: N1_4  and  C2_8 
REMARK    4  A    between atoms: N1_4  and  C3_9 
REMARK    5  A    between atoms: N2_5  and  C4_10 
REMARK       I    between atoms: N2_5  and  C7_13 
REMARK    6  A    between atoms: N3_6  and  C12_18 
REMARK    7  A    between atoms: C1_7  and  C4_10 
REMARK    8  A    between atoms: C7_13  and  C8_14 
ROOT
ATOM      1 Cl1  UNK     1       0.523  36.694 229.846  1.00  0.00    -0.082 Cl
ATOM      2  C8  UNK     1       0.827  36.716 233.805  1.00  0.00     0.067 A 
ATOM      3  C9  UNK     1       0.456  35.442 234.184  1.00  0.00     0.086 A 
ATOM      4  C10 UNK     1       0.852  37.109 232.482  1.00  0.00     0.046 A 
ATOM      5  C11 UNK     1       0.096  34.522 233.200  1.00  0.00     0.068 A 
ATOM      6  C12 UNK     1       0.113  34.896 231.856  1.00  0.00     0.050 A 
ATOM      7  C13 UNK     1       0.491  36.190 231.497  1.00  0.00     0.061 A 
ENDROOT
BRANCH   2   8
ATOM      8  C7  UNK     1       1.214  37.710 234.838  1.00  0.00     0.254 C 
ATOM      9  O2  UNK     1       2.275  38.318 234.719  1.00  0.00    -0.268 OA
ATOM     10  N2  UNK     1       0.309  37.898 235.877  1.00  0.00    -0.355 N 
ATOM     11  H9  UNK     1      -0.517  37.314 235.950  1.00  0.00     0.162 HD
BRANCH  10  12
ATOM     12  C4  UNK     1       0.530  38.842 236.938  1.00  0.00     0.153 C 
BRANCH  12  13
ATOM     13  C1  UNK     1       0.936  38.140 238.225  1.00  0.00     0.292 C 
BRANCH  13  14
ATOM     14  N1  UNK     1       2.389  37.997 238.289  1.00  0.00     0.089 N 
BRANCH  14  15
ATOM     15  C2  UNK     1       2.926  38.732 239.434  1.00  0.00     0.268 C 
ATOM     16  C5  UNK     1       3.767  37.830 240.320  1.00  0.00     0.037 C 
ENDBRANCH  14  15
BRANCH  14  17
ATOM     17  C3  UNK     1       2.761  36.584 238.370  1.00  0.00     0.268 C 
ATOM     18  C6  UNK     1       3.609  36.171 237.179  1.00  0.00     0.037 C 
ENDBRANCH  14  17
ENDBRANCH  13  14
ENDBRANCH  12  13
ENDBRANCH  10  12
ENDBRANCH   2   8
BRANCH   3  19
ATOM     19  O1  UNK     1       0.431  35.058 235.492  1.00  0.00    -0.355 OA
ATOM     20  C14 UNK     1       1.075  33.828 235.818  1.00  0.00     0.210 C 
ENDBRANCH   3  19
BRANCH   6  21
ATOM     21  N3  UNK     1      -0.259  33.943 230.881  1.00  0.00    -0.398 N 
ATOM     22  H18 UNK     1       0.448  33.494 230.314  1.00  0.00     0.156 HD
ATOM     23  H19 UNK     1      -1.235  33.714 230.750  1.00  0.00     0.156 HD
ENDBRANCH   6  21
TORSDOF 8
ENDMDL
MODEL 6
REMARK VINA RESULT:      -5.2      7.965      9.197
REMARK  8 active torsions:
REMARK  status: ('A' for Active; 'I' for Inactive)
REMARK    1  A    between atoms: O1_2  and  C9_15 
REMARK    2  A    between atoms: N1_4  and  C1_7 
REMARK    3  A    between atoms: N1_4  and  C2_8 
REMARK    4  A    between atoms: N1_4  and  C3_9 
REMARK    5  A    between atoms: N2_5  and  C4_10 
REMARK       I    between atoms: N2_5  and  C7_13 
REMARK    6  A    between atoms: N3_6  and  C12_18 
REMARK    7  A    between atoms: C1_7  and  C4_10 
REMARK    8  A    between atoms: C7_13  and  C8_14 
ROOT
ATOM      1 Cl1  UNK     1       0.632  36.386 229.914  1.00  0.00    -0.082 Cl
ATOM      2  C8  UNK     1       0.548  37.034 233.831  1.00  0.00     0.067 A 
ATOM      3  C9  UNK     1      -0.787  36.940 234.166  1.00  0.00     0.086 A 
ATOM      4  C10 UNK     1       0.993  36.866 232.535  1.00  0.00     0.046 A 
ATOM      5  C11 UNK     1      -1.717  36.665 233.163  1.00  0.00     0.068 A 
ATOM      6  C12 UNK     1      -1.292  36.491 231.846  1.00  0.00     0.050 A 
ATOM      7  C13 UNK     1       0.064  36.592 231.532  1.00  0.00     0.061 A 
ENDROOT
BRANCH   2   8
ATOM      8  C7  UNK     1       1.554  37.327 234.884  1.00  0.00     0.254 C 
ATOM      9  O2  UNK     1       2.140  38.407 234.870  1.00  0.00    -0.268 OA
ATOM     10  N2  UNK     1       1.744  36.338 235.842  1.00  0.00    -0.355 N 
ATOM     11  H9  UNK     1       1.275  35.442 235.755  1.00  0.00     0.162 HD
BRANCH  10  12
ATOM     12  C4  UNK     1       2.664  36.483 236.937  1.00  0.00     0.153 C 
BRANCH  12  13
ATOM     13  C1  UNK     1       1.993  37.131 238.138  1.00  0.00     0.292 C 
BRANCH  13  14
ATOM     14  N1  UNK     1       2.592  38.436 238.412  1.00  0.00     0.089 N 
BRANCH  14  15
ATOM     15  C2  UNK     1       1.676  39.511 238.029  1.00  0.00     0.268 C 
ATOM     16  C5  UNK     1       0.228  39.069 238.157  1.00  0.00     0.037 C 
ENDBRANCH  14  15
BRANCH  14  17
ATOM     17  C3  UNK     1       2.948  38.549 239.827  1.00  0.00     0.268 C 
ATOM     18  C6  UNK     1       4.388  38.131 240.066  1.00  0.00     0.037 C 
ENDBRANCH  14  17
ENDBRANCH  13  14
ENDBRANCH  12  13
ENDBRANCH  10  12
ENDBRANCH   2   8
BRANCH   3  19
ATOM     19  O1  UNK     1      -1.223  37.109 235.446  1.00  0.00    -0.355 OA
ATOM     20  C14 UNK     1      -2.387  36.382 235.835  1.00  0.00     0.210 C 
ENDBRANCH   3  19
BRANCH   6  21
ATOM     21  N3  UNK     1      -2.257  36.216 230.852  1.00  0.00    -0.398 N 
ATOM     22  H18 UNK     1      -2.736  35.325 230.842  1.00  0.00     0.156 HD
ATOM     23  H19 UNK     1      -2.465  36.911 230.147  1.00  0.00     0.156 HD
ENDBRANCH   6  21
TORSDOF 8
ENDMDL
MODEL 7
REMARK VINA RESULT:      -5.1      2.091      2.902
REMARK  8 active torsions:
REMARK  status: ('A' for Active; 'I' for Inactive)
REMARK    1  A    between atoms: O1_2  and  C9_15 
REMARK    2  A    between atoms: N1_4  and  C1_7 
REMARK    3  A    between atoms: N1_4  and  C2_8 
REMARK    4  A    between atoms: N1_4  and  C3_9 
REMARK    5  A    between atoms: N2_5  and  C4_10 
REMARK       I    between atoms: N2_5  and  C7_13 
REMARK    6  A    between atoms: N3_6  and  C12_18 
REMARK    7  A    between atoms: C1_7  and  C4_10 
REMARK    8  A    between atoms: C7_13  and  C8_14 
ROOT
ATOM      1 Cl1  UNK     1      -7.210  39.123 227.635  1.00  0.00    -0.082 Cl
ATOM      2  C8  UNK     1      -3.819  41.160 227.977  1.00  0.00     0.067 A 
ATOM      3  C9  UNK     1      -3.882  42.102 226.971  1.00  0.00     0.086 A 
ATOM      4  C10 UNK     1      -4.830  40.245 228.190  1.00  0.00     0.046 A 
ATOM      5  C11 UNK     1      -5.004  42.132 226.143  1.00  0.00     0.068 A 
ATOM      6  C12 UNK     1      -6.039  41.218 226.338  1.00  0.00     0.050 A 
ATOM      7  C13 UNK     1      -5.952  40.274 227.362  1.00  0.00     0.061 A 
ENDROOT
BRANCH   2   8
ATOM      8  C7  UNK     1      -2.632  41.111 228.869  1.00  0.00     0.254 C 
ATOM      9  O2  UNK     1      -2.220  40.022 229.261  1.00  0.00    -0.268 OA
ATOM     10  N2  UNK     1      -2.051  42.334 229.183  1.00  0.00    -0.355 N 
ATOM     11  H9  UNK     1      -2.483  43.201 228.881  1.00  0.00     0.162 HD
BRANCH  10  12
ATOM     12  C4  UNK     1      -0.884  42.449 230.014  1.00  0.00     0.153 C 
BRANCH  12  13
ATOM     13  C1  UNK     1       0.385  42.508 229.177  1.00  0.00     0.292 C 
BRANCH  13  14
ATOM     14  N1  UNK     1       1.331  43.461 229.755  1.00  0.00     0.089 N 
BRANCH  14  15
ATOM     15  C2  UNK     1       2.443  43.701 228.834  1.00  0.00     0.268 C 
ATOM     16  C5  UNK     1       2.727  42.472 227.987  1.00  0.00     0.037 C 
ENDBRANCH  14  15
BRANCH  14  17
ATOM     17  C3  UNK     1       0.657  44.719 230.079  1.00  0.00     0.268 C 
ATOM     18  C6  UNK     1       0.939  45.780 229.029  1.00  0.00     0.037 C 
ENDBRANCH  14  17
ENDBRANCH  13  14
ENDBRANCH  12  13
ENDBRANCH  10  12
ENDBRANCH   2   8
BRANCH   3  19
ATOM     19  O1  UNK     1      -2.879  43.003 226.764  1.00  0.00    -0.355 OA
ATOM     20  C14 UNK     1      -2.114  42.856 225.570  1.00  0.00     0.210 C 
ENDBRANCH   3  19
BRANCH   6  21
ATOM     21  N3  UNK     1      -7.162  41.272 225.482  1.00  0.00    -0.398 N 
ATOM     22  H18 UNK     1      -8.083  41.447 225.863  1.00  0.00     0.156 HD
ATOM     23  H19 UNK     1      -7.042  41.130 224.488  1.00  0.00     0.156 HD
ENDBRANCH   6  21
TORSDOF 8
ENDMDL
MODEL 8
REMARK VINA RESULT:      -5.1     10.236     11.679
REMARK  8 active torsions:
REMARK  status: ('A' for Active; 'I' for Inactive)
REMARK    1  A    between atoms: O1_2  and  C9_15 
REMARK    2  A    between atoms: N1_4  and  C1_7 
REMARK    3  A    between atoms: N1_4  and  C2_8 
REMARK    4  A    between atoms: N1_4  and  C3_9 
REMARK    5  A    between atoms: N2_5  and  C4_10 
REMARK       I    between atoms: N2_5  and  C7_13 
REMARK    6  A    between atoms: N3_6  and  C12_18 
REMARK    7  A    between atoms: C1_7  and  C4_10 
REMARK    8  A    between atoms: C7_13  and  C8_14 
ROOT
ATOM      1 Cl1  UNK     1      -0.432  33.010 232.627  1.00  0.00    -0.082 Cl
ATOM      2  C8  UNK     1       1.882  33.589 235.802  1.00  0.00     0.067 A 
ATOM      3  C9  UNK     1       2.693  32.473 235.843  1.00  0.00     0.086 A 
ATOM      4  C10 UNK     1       0.924  33.763 234.824  1.00  0.00     0.046 A 
ATOM      5  C11 UNK     1       2.541  31.491 234.864  1.00  0.00     0.068 A 
ATOM      6  C12 UNK     1       1.580  31.646 233.865  1.00  0.00     0.050 A 
ATOM      7  C13 UNK     1       0.771  32.782 233.845  1.00  0.00     0.061 A 
ENDROOT
BRANCH   2   8
ATOM      8  C7  UNK     1       2.027  34.645 236.836  1.00  0.00     0.254 C 
ATOM      9  O2  UNK     1       1.091  34.870 237.600  1.00  0.00    -0.268 OA
ATOM     10  N2  UNK     1       3.252  35.301 236.874  1.00  0.00    -0.355 N 
ATOM     11  H9  UNK     1       3.958  35.112 236.170  1.00  0.00     0.162 HD
BRANCH  10  12
ATOM     12  C4  UNK     1       3.553  36.329 237.832  1.00  0.00     0.153 C 
BRANCH  12  13
ATOM     13  C1  UNK     1       3.407  37.713 237.220  1.00  0.00     0.292 C 
BRANCH  13  14
ATOM     14  N1  UNK     1       2.009  38.137 237.249  1.00  0.00     0.089 N 
BRANCH  14  15
ATOM     15  C2  UNK     1       1.775  39.053 238.366  1.00  0.00     0.268 C 
ATOM     16  C5  UNK     1       0.356  39.596 238.342  1.00  0.00     0.037 C 
ENDBRANCH  14  15
BRANCH  14  17
ATOM     17  C3  UNK     1       1.639  38.771 235.983  1.00  0.00     0.268 C 
ATOM     18  C6  UNK     1       1.234  37.735 234.948  1.00  0.00     0.037 C 
ENDBRANCH  14  17
ENDBRANCH  13  14
ENDBRANCH  12  13
ENDBRANCH  10  12
ENDBRANCH   2   8
BRANCH   3  19
ATOM     19  O1  UNK     1       3.637  32.304 236.812  1.00  0.00    -0.355 OA
ATOM     20  C14 UNK     1       3.942  30.963 237.191  1.00  0.00     0.210 C 
ENDBRANCH   3  19
BRANCH   6  21
ATOM     21  N3  UNK     1       1.449  30.633 232.887  1.00  0.00    -0.398 N 
ATOM     22  H18 UNK     1       0.531  30.329 232.592  1.00  0.00     0.156 HD
ATOM     23  H19 UNK     1       2.277  30.212 232.487  1.00  0.00     0.156 HD
ENDBRANCH   6  21
TORSDOF 8
ENDMDL
MODEL 9
REMARK VINA RESULT:      -5.0      7.803      8.920
REMARK  8 active torsions:
REMARK  status: ('A' for Active; 'I' for Inactive)
REMARK    1  A    between atoms: O1_2  and  C9_15 
REMARK    2  A    between atoms: N1_4  and  C1_7 
REMARK    3  A    between atoms: N1_4  and  C2_8 
REMARK    4  A    between atoms: N1_4  and  C3_9 
REMARK    5  A    between atoms: N2_5  and  C4_10 
REMARK       I    between atoms: N2_5  and  C7_13 
REMARK    6  A    between atoms: N3_6  and  C12_18 
REMARK    7  A    between atoms: C1_7  and  C4_10 
REMARK    8  A    between atoms: C7_13  and  C8_14 
ROOT
ATOM      1 Cl1  UNK     1       0.501  33.066 233.109  1.00  0.00    -0.082 Cl
ATOM      2  C8  UNK     1       0.247  36.930 233.990  1.00  0.00     0.067 A 
ATOM      3  C9  UNK     1      -0.804  37.388 233.223  1.00  0.00     0.086 A 
ATOM      4  C10 UNK     1       0.654  35.611 233.964  1.00  0.00     0.046 A 
ATOM      5  C11 UNK     1      -1.478  36.490 232.395  1.00  0.00     0.068 A 
ATOM      6  C12 UNK     1      -1.085  35.153 232.351  1.00  0.00     0.050 A 
ATOM      7  C13 UNK     1      -0.018  34.713 233.135  1.00  0.00     0.061 A 
ENDROOT
BRANCH   2   8
ATOM      8  C7  UNK     1       0.978  37.870 234.878  1.00  0.00     0.254 C 
ATOM      9  O2  UNK     1       2.053  38.334 234.505  1.00  0.00    -0.268 OA
ATOM     10  N2  UNK     1       0.361  38.177 236.085  1.00  0.00    -0.355 N 
ATOM     11  H9  UNK     1      -0.495  37.706 236.359  1.00  0.00     0.162 HD
BRANCH  10  12
ATOM     12  C4  UNK     1       0.931  39.089 237.038  1.00  0.00     0.153 C 
BRANCH  12  13
ATOM     13  C1  UNK     1       1.787  38.355 238.060  1.00  0.00     0.292 C 
BRANCH  13  14
ATOM     14  N1  UNK     1       3.206  38.578 237.789  1.00  0.00     0.089 N 
BRANCH  14  15
ATOM     15  C2  UNK     1       3.899  39.002 239.005  1.00  0.00     0.268 C 
ATOM     16  C5  UNK     1       3.101  38.639 240.246  1.00  0.00     0.037 C 
ENDBRANCH  14  15
BRANCH  14  17
ATOM     17  C3  UNK     1       3.820  37.366 237.246  1.00  0.00     0.268 C 
ATOM     18  C6  UNK     1       2.988  36.137 237.571  1.00  0.00     0.037 C 
ENDBRANCH  14  17
ENDBRANCH  13  14
ENDBRANCH  12  13
ENDBRANCH  10  12
ENDBRANCH   2   8
BRANCH   3  19
ATOM     19  O1  UNK     1      -1.202  38.692 233.251  1.00  0.00    -0.355 OA
ATOM     20  C14 UNK     1      -2.337  39.039 232.460  1.00  0.00     0.210 C 
ENDBRANCH   3  19
BRANCH   6  21
ATOM     21  N3  UNK     1      -1.786  34.267 231.501  1.00  0.00    -0.398 N 
ATOM     22  H18 UNK     1      -1.859  33.286 231.739  1.00  0.00     0.156 HD
ATOM     23  H19 UNK     1      -2.210  34.616 230.652  1.00  0.00     0.156 HD
ENDBRANCH   6  21
TORSDOF 8
ENDMDL
