MODEL 1
REMARK VINA RESULT:      -5.9      0.000      0.000
REMARK  5 active torsions:
REMARK  status: ('A' for Active; 'I' for Inactive)
REMARK    1  A    between atoms: S1_1  and  C1_5 
REMARK    2  A    between atoms: S1_1  and  C4_8 
REMARK       I    between atoms: N1_4  and  C15_19 
REMARK    3  A    between atoms: C1_5  and  C2_6 
REMARK    4  A    between atoms: C1_5  and  C3_7 
REMARK    5  A    between atoms: C4_8  and  C15_19 
ROOT
ATOM      1  C1  UNK     1       1.165  37.335 235.563  1.00  0.00     0.145 C 
ENDROOT
BRANCH   1   2
ATOM      2  S1  UNK     1       0.127  38.032 236.928  1.00  0.00     0.037 S 
ATOM      3  O1  UNK     1       0.254  37.083 238.066  1.00  0.00    -0.257 OA
BRANCH   2   4
ATOM      4  C4  UNK     1       1.223  39.434 237.234  1.00  0.00     0.212 C 
BRANCH   4   5
ATOM      5  C15 UNK     1       2.317  39.050 238.197  1.00  0.00     0.227 C 
ATOM      6  O2  UNK     1       3.488  38.916 237.851  1.00  0.00    -0.273 OA
ATOM      7  N1  UNK     1       1.876  38.872 239.488  1.00  0.00    -0.370 N 
ATOM      8  H14 UNK     1       2.522  38.613 240.226  1.00  0.00     0.159 HD
ATOM      9  H15 UNK     1       0.904  38.990 239.758  1.00  0.00     0.159 HD
ENDBRANCH   4   5
ENDBRANCH   2   4
ENDBRANCH   1   2
BRANCH   1  10
ATOM     10  C2  UNK     1       0.537  37.470 234.217  1.00  0.00    -0.038 A 
ATOM     11  C5  UNK     1       1.185  36.958 233.091  1.00  0.00     0.009 A 
ATOM     12  C9  UNK     1       0.598  37.084 231.832  1.00  0.00     0.001 A 
ATOM     13  C13 UNK     1      -0.637  37.720 231.699  1.00  0.00     0.000 A 
ATOM     14  C11 UNK     1      -1.284  38.232 232.823  1.00  0.00     0.001 A 
ATOM     15  C7  UNK     1      -0.696  38.106 234.083  1.00  0.00     0.009 A 
ENDBRANCH   1  10
BRANCH   1  16
ATOM     16  C3  UNK     1       1.648  35.924 235.892  1.00  0.00    -0.038 A 
ATOM     17  C6  UNK     1       0.845  34.855 235.561  1.00  0.00     0.009 A 
ATOM     18  C10 UNK     1       1.286  33.568 235.863  1.00  0.00     0.001 A 
ATOM     19  C14 UNK     1       2.518  33.381 236.488  1.00  0.00     0.000 A 
ATOM     20  C12 UNK     1       3.312  34.482 236.811  1.00  0.00     0.001 A 
ATOM     21  C8  UNK     1       2.870  35.771 236.509  1.00  0.00     0.009 A 
ENDBRANCH   1  16
TORSDOF 5
ENDMDL
MODEL 2
REMARK VINA RESULT:      -5.6      2.387      2.949
REMARK  5 active torsions:
REMARK  status: ('A' for Active; 'I' for Inactive)
REMARK    1  A    between atoms: S1_1  and  C1_5 
REMARK    2  A    between atoms: S1_1  and  C4_8 
REMARK       I    between atoms: N1_4  and  C15_19 
REMARK    3  A    between atoms: C1_5  and  C2_6 
REMARK    4  A    between atoms: C1_5  and  C3_7 
REMARK    5  A    between atoms: C4_8  and  C15_19 
ROOT
ATOM      1  C1  UNK     1       1.131  36.470 236.376  1.00  0.00     0.145 C 
ENDROOT
BRANCH   1   2
ATOM      2  S1  UNK     1       1.721  38.167 236.820  1.00  0.00     0.037 S 
ATOM      3  O1  UNK     1       1.098  38.490 238.131  1.00  0.00    -0.257 OA
BRANCH   2   4
ATOM      4  C4  UNK     1       3.426  37.648 237.115  1.00  0.00     0.212 C 
BRANCH   4   5
ATOM      5  C15 UNK     1       3.808  37.882 238.554  1.00  0.00     0.227 C 
ATOM      6  O2  UNK     1       3.985  36.964 239.351  1.00  0.00    -0.273 OA
ATOM      7  N1  UNK     1       3.943  39.212 238.878  1.00  0.00    -0.370 N 
ATOM      8  H14 UNK     1       4.199  39.494 239.818  1.00  0.00     0.159 HD
ATOM      9  H15 UNK     1       3.796  39.959 238.206  1.00  0.00     0.159 HD
ENDBRANCH   4   5
ENDBRANCH   2   4
ENDBRANCH   1   2
BRANCH   1  10
ATOM     10  C2  UNK     1       0.960  36.270 234.908  1.00  0.00    -0.038 A 
ATOM     11  C5  UNK     1       0.579  35.021 234.414  1.00  0.00     0.009 A 
ATOM     12  C9  UNK     1       0.419  34.834 233.041  1.00  0.00     0.001 A 
ATOM     13  C13 UNK     1       0.640  35.895 232.163  1.00  0.00     0.000 A 
ATOM     14  C11 UNK     1       1.020  37.143 232.655  1.00  0.00     0.001 A 
ATOM     15  C7  UNK     1       1.180  37.330 234.029  1.00  0.00     0.009 A 
ENDBRANCH   1  10
BRANCH   1  16
ATOM     16  C3  UNK     1      -0.084  36.064 237.210  1.00  0.00    -0.038 A 
ATOM     17  C6  UNK     1      -1.293  36.671 236.957  1.00  0.00     0.009 A 
ATOM     18  C10 UNK     1      -2.400  36.302 237.719  1.00  0.00     0.001 A 
ATOM     19  C14 UNK     1      -2.270  35.334 238.715  1.00  0.00     0.000 A 
ATOM     20  C12 UNK     1      -1.032  34.736 238.949  1.00  0.00     0.001 A 
ATOM     21  C8  UNK     1       0.076  35.106 238.186  1.00  0.00     0.009 A 
ENDBRANCH   1  16
TORSDOF 5
ENDMDL
MODEL 3
REMARK VINA RESULT:      -5.6      1.449      4.531
REMARK  5 active torsions:
REMARK  status: ('A' for Active; 'I' for Inactive)
REMARK    1  A    between atoms: S1_1  and  C1_5 
REMARK    2  A    between atoms: S1_1  and  C4_8 
REMARK       I    between atoms: N1_4  and  C15_19 
REMARK    3  A    between atoms: C1_5  and  C2_6 
REMARK    4  A    between atoms: C1_5  and  C3_7 
REMARK    5  A    between atoms: C4_8  and  C15_19 
ROOT
ATOM      1  C1  UNK     1       0.716  36.272 235.348  1.00  0.00     0.145 C 
ENDROOT
BRANCH   1   2
ATOM      2  S1  UNK     1       1.776  37.581 236.116  1.00  0.00     0.037 S 
ATOM      3  O1  UNK     1       1.627  38.786 235.257  1.00  0.00    -0.257 OA
BRANCH   2   4
ATOM      4  C4  UNK     1       0.719  37.784 237.566  1.00  0.00     0.212 C 
BRANCH   4   5
ATOM      5  C15 UNK     1       1.024  39.084 238.265  1.00  0.00     0.227 C 
ATOM      6  O2  UNK     1       0.147  39.814 238.720  1.00  0.00    -0.273 OA
ATOM      7  N1  UNK     1       2.368  39.362 238.345  1.00  0.00    -0.370 N 
ATOM      8  H14 UNK     1       2.698  40.210 238.795  1.00  0.00     0.159 HD
ATOM      9  H15 UNK     1       3.081  38.746 237.965  1.00  0.00     0.159 HD
ENDBRANCH   4   5
ENDBRANCH   2   4
ENDBRANCH   1   2
BRANCH   1  10
ATOM     10  C2  UNK     1       1.323  34.911 235.406  1.00  0.00    -0.038 A 
ATOM     11  C5  UNK     1       2.404  34.666 236.253  1.00  0.00     0.009 A 
ATOM     12  C9  UNK     1       2.973  33.393 236.307  1.00  0.00     0.001 A 
ATOM     13  C13 UNK     1       2.460  32.367 235.513  1.00  0.00     0.000 A 
ATOM     14  C11 UNK     1       1.380  32.611 234.666  1.00  0.00     0.001 A 
ATOM     15  C7  UNK     1       0.812  33.885 234.612  1.00  0.00     0.009 A 
ENDBRANCH   1  10
BRANCH   1  16
ATOM     16  C3  UNK     1       0.234  36.686 233.958  1.00  0.00    -0.038 A 
ATOM     17  C6  UNK     1       1.116  36.614 232.904  1.00  0.00     0.009 A 
ATOM     18  C10 UNK     1       0.676  36.993 231.636  1.00  0.00     0.001 A 
ATOM     19  C14 UNK     1      -0.634  37.434 231.455  1.00  0.00     0.000 A 
ATOM     20  C12 UNK     1      -1.506  37.496 232.542  1.00  0.00     0.001 A 
ATOM     21  C8  UNK     1      -1.066  37.117 233.811  1.00  0.00     0.009 A 
ENDBRANCH   1  16
TORSDOF 5
ENDMDL
MODEL 4
REMARK VINA RESULT:      -5.5      2.515      3.863
REMARK  5 active torsions:
REMARK  status: ('A' for Active; 'I' for Inactive)
REMARK    1  A    between atoms: S1_1  and  C1_5 
REMARK    2  A    between atoms: S1_1  and  C4_8 
REMARK       I    between atoms: N1_4  and  C15_19 
REMARK    3  A    between atoms: C1_5  and  C2_6 
REMARK    4  A    between atoms: C1_5  and  C3_7 
REMARK    5  A    between atoms: C4_8  and  C15_19 
ROOT
ATOM      1  C1  UNK     1       0.334  36.286 236.133  1.00  0.00     0.145 C 
ENDROOT
BRANCH   1   2
ATOM      2  S1  UNK     1       0.144  34.662 237.002  1.00  0.00     0.037 S 
ATOM      3  O1  UNK     1       0.666  34.869 238.380  1.00  0.00    -0.257 OA
BRANCH   2   4
ATOM      4  C4  UNK     1      -1.659  34.746 237.061  1.00  0.00     0.212 C 
BRANCH   4   5
ATOM      5  C15 UNK     1      -2.114  35.504 238.282  1.00  0.00     0.227 C 
ATOM      6  O2  UNK     1      -2.451  36.684 238.243  1.00  0.00    -0.273 OA
ATOM      7  N1  UNK     1      -2.118  34.745 239.429  1.00  0.00    -0.370 N 
ATOM      8  H14 UNK     1      -2.406  35.146 240.316  1.00  0.00     0.159 HD
ATOM      9  H15 UNK     1      -1.838  33.769 239.444  1.00  0.00     0.159 HD
ENDBRANCH   4   5
ENDBRANCH   2   4
ENDBRANCH   1   2
BRANCH   1  10
ATOM     10  C2  UNK     1       0.465  36.151 234.654  1.00  0.00    -0.038 A 
ATOM     11  C5  UNK     1       0.842  37.253 233.884  1.00  0.00     0.009 A 
ATOM     12  C9  UNK     1       0.964  37.128 232.501  1.00  0.00     0.001 A 
ATOM     13  C13 UNK     1       0.711  35.901 231.887  1.00  0.00     0.000 A 
ATOM     14  C11 UNK     1       0.335  34.799 232.655  1.00  0.00     0.001 A 
ATOM     15  C7  UNK     1       0.212  34.925 234.040  1.00  0.00     0.009 A 
ENDBRANCH   1  10
BRANCH   1  16
ATOM     16  C3  UNK     1       1.418  37.144 236.784  1.00  0.00    -0.038 A 
ATOM     17  C6  UNK     1       1.044  38.293 237.444  1.00  0.00     0.009 A 
ATOM     18  C10 UNK     1       2.033  39.077 238.037  1.00  0.00     0.001 A 
ATOM     19  C14 UNK     1       3.371  38.691 237.955  1.00  0.00     0.000 A 
ATOM     20  C12 UNK     1       3.720  37.522 237.280  1.00  0.00     0.001 A 
ATOM     21  C8  UNK     1       2.730  36.738 236.686  1.00  0.00     0.009 A 
ENDBRANCH   1  16
TORSDOF 5
ENDMDL
MODEL 5
REMARK VINA RESULT:      -5.5      2.549      4.662
REMARK  5 active torsions:
REMARK  status: ('A' for Active; 'I' for Inactive)
REMARK    1  A    between atoms: S1_1  and  C1_5 
REMARK    2  A    between atoms: S1_1  and  C4_8 
REMARK       I    between atoms: N1_4  and  C15_19 
REMARK    3  A    between atoms: C1_5  and  C2_6 
REMARK    4  A    between atoms: C1_5  and  C3_7 
REMARK    5  A    between atoms: C4_8  and  C15_19 
ROOT
ATOM      1  C1  UNK     1       0.490  36.178 236.145  1.00  0.00     0.145 C 
ENDROOT
BRANCH   1   2
ATOM      2  S1  UNK     1      -1.230  36.560 236.714  1.00  0.00     0.037 S 
ATOM      3  O1  UNK     1      -2.039  36.750 235.480  1.00  0.00    -0.257 OA
BRANCH   2   4
ATOM      4  C4  UNK     1      -1.541  34.897 237.345  1.00  0.00     0.212 C 
BRANCH   4   5
ATOM      5  C15 UNK     1      -1.318  34.847 238.835  1.00  0.00     0.227 C 
ATOM      6  O2  UNK     1      -0.200  34.903 239.341  1.00  0.00    -0.273 OA
ATOM      7  N1  UNK     1      -2.482  34.740 239.561  1.00  0.00    -0.370 N 
ATOM      8  H14 UNK     1      -2.459  34.698 240.575  1.00  0.00     0.159 HD
ATOM      9  H15 UNK     1      -3.399  34.697 239.127  1.00  0.00     0.159 HD
ENDBRANCH   4   5
ENDBRANCH   2   4
ENDBRANCH   1   2
BRANCH   1  10
ATOM     10  C2  UNK     1       1.525  37.053 236.767  1.00  0.00    -0.038 A 
ATOM     11  C5  UNK     1       2.854  36.631 236.818  1.00  0.00     0.009 A 
ATOM     12  C9  UNK     1       3.823  37.449 237.399  1.00  0.00     0.001 A 
ATOM     13  C13 UNK     1       3.462  38.689 237.928  1.00  0.00     0.000 A 
ATOM     14  C11 UNK     1       2.134  39.111 237.877  1.00  0.00     0.001 A 
ATOM     15  C7  UNK     1       1.165  38.291 237.295  1.00  0.00     0.009 A 
ENDBRANCH   1  10
BRANCH   1  16
ATOM     16  C3  UNK     1       0.569  36.095 234.621  1.00  0.00    -0.038 A 
ATOM     17  C6  UNK     1       0.259  34.904 234.006  1.00  0.00     0.009 A 
ATOM     18  C10 UNK     1       0.333  34.829 232.616  1.00  0.00     0.001 A 
ATOM     19  C14 UNK     1       0.714  35.948 231.876  1.00  0.00     0.000 A 
ATOM     20  C12 UNK     1       1.023  37.143 232.527  1.00  0.00     0.001 A 
ATOM     21  C8  UNK     1       0.950  37.217 233.919  1.00  0.00     0.009 A 
ENDBRANCH   1  16
TORSDOF 5
ENDMDL
MODEL 6
REMARK VINA RESULT:      -5.5      1.376      4.368
REMARK  5 active torsions:
REMARK  status: ('A' for Active; 'I' for Inactive)
REMARK    1  A    between atoms: S1_1  and  C1_5 
REMARK    2  A    between atoms: S1_1  and  C4_8 
REMARK       I    between atoms: N1_4  and  C15_19 
REMARK    3  A    between atoms: C1_5  and  C2_6 
REMARK    4  A    between atoms: C1_5  and  C3_7 
REMARK    5  A    between atoms: C4_8  and  C15_19 
ROOT
ATOM      1  C1  UNK     1       1.046  36.452 235.830  1.00  0.00     0.145 C 
ENDROOT
BRANCH   1   2
ATOM      2  S1  UNK     1       2.252  37.708 236.460  1.00  0.00     0.037 S 
ATOM      3  O1  UNK     1       1.823  39.012 235.888  1.00  0.00    -0.257 OA
BRANCH   2   4
ATOM      4  C4  UNK     1       1.669  37.617 238.167  1.00  0.00     0.212 C 
BRANCH   4   5
ATOM      5  C15 UNK     1       2.831  37.655 239.125  1.00  0.00     0.227 C 
ATOM      6  O2  UNK     1       3.868  37.025 238.936  1.00  0.00    -0.273 OA
ATOM      7  N1  UNK     1       2.617  38.464 240.217  1.00  0.00    -0.370 N 
ATOM      8  H14 UNK     1       3.329  38.572 240.932  1.00  0.00     0.159 HD
ATOM      9  H15 UNK     1       1.754  38.981 240.357  1.00  0.00     0.159 HD
ENDBRANCH   4   5
ENDBRANCH   2   4
ENDBRANCH   1   2
BRANCH   1  10
ATOM     10  C2  UNK     1       1.592  35.064 235.816  1.00  0.00    -0.038 A 
ATOM     11  C5  UNK     1       2.796  34.782 236.463  1.00  0.00     0.009 A 
ATOM     12  C9  UNK     1       3.308  33.485 236.449  1.00  0.00     0.001 A 
ATOM     13  C13 UNK     1       2.615  32.469 235.789  1.00  0.00     0.000 A 
ATOM     14  C11 UNK     1       1.411  32.750 235.143  1.00  0.00     0.001 A 
ATOM     15  C7  UNK     1       0.900  34.049 235.156  1.00  0.00     0.009 A 
ENDBRANCH   1  10
BRANCH   1  16
ATOM     16  C3  UNK     1       0.418  36.893 234.509  1.00  0.00    -0.038 A 
ATOM     17  C6  UNK     1      -0.872  37.374 234.517  1.00  0.00     0.009 A 
ATOM     18  C10 UNK     1      -1.444  37.776 233.311  1.00  0.00     0.001 A 
ATOM     19  C14 UNK     1      -0.713  37.686 232.127  1.00  0.00     0.000 A 
ATOM     20  C12 UNK     1       0.593  37.195 232.149  1.00  0.00     0.001 A 
ATOM     21  C8  UNK     1       1.166  36.793 233.357  1.00  0.00     0.009 A 
ENDBRANCH   1  16
TORSDOF 5
ENDMDL
MODEL 7
REMARK VINA RESULT:      -5.5      2.362      3.642
REMARK  5 active torsions:
REMARK  status: ('A' for Active; 'I' for Inactive)
REMARK    1  A    between atoms: S1_1  and  C1_5 
REMARK    2  A    between atoms: S1_1  and  C4_8 
REMARK       I    between atoms: N1_4  and  C15_19 
REMARK    3  A    between atoms: C1_5  and  C2_6 
REMARK    4  A    between atoms: C1_5  and  C3_7 
REMARK    5  A    between atoms: C4_8  and  C15_19 
ROOT
ATOM      1  C1  UNK     1       0.396  36.285 236.160  1.00  0.00     0.145 C 
ENDROOT
BRANCH   1   2
ATOM      2  S1  UNK     1       0.250  34.655 237.026  1.00  0.00     0.037 S 
ATOM      3  O1  UNK     1       1.642  34.181 237.246  1.00  0.00    -0.257 OA
BRANCH   2   4
ATOM      4  C4  UNK     1      -0.356  35.371 238.569  1.00  0.00     0.212 C 
BRANCH   4   5
ATOM      5  C15 UNK     1       0.481  34.905 239.732  1.00  0.00     0.227 C 
ATOM      6  O2  UNK     1       0.258  33.857 240.332  1.00  0.00    -0.273 OA
ATOM      7  N1  UNK     1       1.511  35.761 240.046  1.00  0.00    -0.370 N 
ATOM      8  H14 UNK     1       2.144  35.554 240.811  1.00  0.00     0.159 HD
ATOM      9  H15 UNK     1       1.683  36.623 239.538  1.00  0.00     0.159 HD
ENDBRANCH   4   5
ENDBRANCH   2   4
ENDBRANCH   1   2
BRANCH   1  10
ATOM     10  C2  UNK     1       0.512  36.158 234.678  1.00  0.00    -0.038 A 
ATOM     11  C5  UNK     1       0.189  34.953 234.055  1.00  0.00     0.009 A 
ATOM     12  C9  UNK     1       0.298  34.834 232.669  1.00  0.00     0.001 A 
ATOM     13  C13 UNK     1       0.729  35.920 231.908  1.00  0.00     0.000 A 
ATOM     14  C11 UNK     1       1.053  37.126 232.531  1.00  0.00     0.001 A 
ATOM     15  C7  UNK     1       0.944  37.244 233.917  1.00  0.00     0.009 A 
ENDBRANCH   1  10
BRANCH   1  16
ATOM     16  C3  UNK     1       1.469  37.164 236.801  1.00  0.00    -0.038 A 
ATOM     17  C6  UNK     1       2.781  36.752 236.748  1.00  0.00     0.009 A 
ATOM     18  C10 UNK     1       3.759  37.554 237.334  1.00  0.00     0.001 A 
ATOM     19  C14 UNK     1       3.401  38.749 237.957  1.00  0.00     0.000 A 
ATOM     20  C12 UNK     1       2.063  39.142 237.994  1.00  0.00     0.001 A 
ATOM     21  C8  UNK     1       1.084  38.339 237.409  1.00  0.00     0.009 A 
ENDBRANCH   1  16
TORSDOF 5
ENDMDL
MODEL 8
REMARK VINA RESULT:      -5.5      2.594      4.051
REMARK  5 active torsions:
REMARK  status: ('A' for Active; 'I' for Inactive)
REMARK    1  A    between atoms: S1_1  and  C1_5 
REMARK    2  A    between atoms: S1_1  and  C4_8 
REMARK       I    between atoms: N1_4  and  C15_19 
REMARK    3  A    between atoms: C1_5  and  C2_6 
REMARK    4  A    between atoms: C1_5  and  C3_7 
REMARK    5  A    between atoms: C4_8  and  C15_19 
ROOT
ATOM      1  C1  UNK     1       0.162  36.732 236.194  1.00  0.00     0.145 C 
ENDROOT
BRANCH   1   2
ATOM      2  S1  UNK     1      -0.420  35.293 237.203  1.00  0.00     0.037 S 
ATOM      3  O1  UNK     1       0.552  35.153 238.319  1.00  0.00    -0.257 OA
BRANCH   2   4
ATOM      4  C4  UNK     1      -1.884  36.145 237.829  1.00  0.00     0.212 C 
BRANCH   4   5
ATOM      5  C15 UNK     1      -2.765  35.190 238.593  1.00  0.00     0.227 C 
ATOM      6  O2  UNK     1      -3.935  34.976 238.285  1.00  0.00    -0.273 OA
ATOM      7  N1  UNK     1      -2.131  34.585 239.653  1.00  0.00    -0.370 N 
ATOM      8  H14 UNK     1      -2.622  33.920 240.241  1.00  0.00     0.159 HD
ATOM      9  H15 UNK     1      -1.162  34.770 239.892  1.00  0.00     0.159 HD
ENDBRANCH   4   5
ENDBRANCH   2   4
ENDBRANCH   1   2
BRANCH   1  10
ATOM     10  C2  UNK     1       0.345  36.406 234.751  1.00  0.00    -0.038 A 
ATOM     11  C5  UNK     1       0.126  35.105 234.297  1.00  0.00     0.009 A 
ATOM     12  C9  UNK     1       0.298  34.799 232.947  1.00  0.00     0.001 A 
ATOM     13  C13 UNK     1       0.687  35.795 232.051  1.00  0.00     0.000 A 
ATOM     14  C11 UNK     1       0.906  37.096 232.504  1.00  0.00     0.001 A 
ATOM     15  C7  UNK     1       0.734  37.401 233.855  1.00  0.00     0.009 A 
ENDBRANCH   1  10
BRANCH   1  16
ATOM     16  C3  UNK     1       1.365  37.418 236.841  1.00  0.00    -0.038 A 
ATOM     17  C6  UNK     1       2.616  36.875 236.651  1.00  0.00     0.009 A 
ATOM     18  C10 UNK     1       3.713  37.500 237.242  1.00  0.00     0.001 A 
ATOM     19  C14 UNK     1       3.531  38.652 238.007  1.00  0.00     0.000 A 
ATOM     20  C12 UNK     1       2.252  39.180 238.181  1.00  0.00     0.001 A 
ATOM     21  C8  UNK     1       1.153  38.554 237.590  1.00  0.00     0.009 A 
ENDBRANCH   1  16
TORSDOF 5
ENDMDL
MODEL 9
REMARK VINA RESULT:      -5.4      2.836      3.987
REMARK  5 active torsions:
REMARK  status: ('A' for Active; 'I' for Inactive)
REMARK    1  A    between atoms: S1_1  and  C1_5 
REMARK    2  A    between atoms: S1_1  and  C4_8 
REMARK       I    between atoms: N1_4  and  C15_19 
REMARK    3  A    between atoms: C1_5  and  C2_6 
REMARK    4  A    between atoms: C1_5  and  C3_7 
REMARK    5  A    between atoms: C4_8  and  C15_19 
ROOT
ATOM      1  C1  UNK     1       0.119  36.696 234.759  1.00  0.00     0.145 C 
ENDROOT
BRANCH   1   2
ATOM      2  S1  UNK     1      -1.392  36.054 235.615  1.00  0.00     0.037 S 
ATOM      3  O1  UNK     1      -1.362  36.627 236.987  1.00  0.00    -0.257 OA
BRANCH   2   4
ATOM      4  C4  UNK     1      -2.541  37.028 234.619  1.00  0.00     0.212 C 
BRANCH   4   5
ATOM      5  C15 UNK     1      -3.952  36.853 235.117  1.00  0.00     0.227 C 
ATOM      6  O2  UNK     1      -4.871  37.598 234.785  1.00  0.00    -0.273 OA
ATOM      7  N1  UNK     1      -4.106  35.782 235.967  1.00  0.00    -0.370 N 
ATOM      8  H14 UNK     1      -5.013  35.562 236.366  1.00  0.00     0.159 HD
ATOM      9  H15 UNK     1      -3.337  35.174 236.229  1.00  0.00     0.159 HD
ENDBRANCH   4   5
ENDBRANCH   2   4
ENDBRANCH   1   2
BRANCH   1  10
ATOM     10  C2  UNK     1       0.243  36.226 233.349  1.00  0.00    -0.038 A 
ATOM     11  C5  UNK     1      -0.238  34.967 232.989  1.00  0.00     0.009 A 
ATOM     12  C9  UNK     1      -0.121  34.527 231.670  1.00  0.00     0.001 A 
ATOM     13  C13 UNK     1       0.474  35.348 230.712  1.00  0.00     0.000 A 
ATOM     14  C11 UNK     1       0.954  36.607 231.071  1.00  0.00     0.001 A 
ATOM     15  C7  UNK     1       0.838  37.046 232.391  1.00  0.00     0.009 A 
ENDBRANCH   1  10
BRANCH   1  16
ATOM     16  C3  UNK     1       1.374  36.482 235.604  1.00  0.00    -0.038 A 
ATOM     17  C6  UNK     1       1.703  35.202 235.988  1.00  0.00     0.009 A 
ATOM     18  C10 UNK     1       2.847  35.008 236.760  1.00  0.00     0.001 A 
ATOM     19  C14 UNK     1       3.634  36.099 237.129  1.00  0.00     0.000 A 
ATOM     20  C12 UNK     1       3.276  37.386 236.725  1.00  0.00     0.001 A 
ATOM     21  C8  UNK     1       2.130  37.580 235.953  1.00  0.00     0.009 A 
ENDBRANCH   1  16
TORSDOF 5
ENDMDL
