MODEL 1
REMARK VINA RESULT:      -7.2      0.000      0.000
REMARK  11 active torsions:
REMARK  status: ('A' for Active; 'I' for Inactive)
REMARK    1  A    between atoms: O1_1  and  C7_16 
REMARK    2  A    between atoms: O1_1  and  C14_23 
REMARK    3  A    between atoms: O2_2  and  C11_20 
REMARK    4  A    between atoms: N2_8  and  C13_22 
REMARK    5  A    between atoms: N2_8  and  C17_26 
REMARK    6  A    between atoms: N3_9  and  C15_24 
REMARK    7  A    between atoms: C1_10  and  C4_13 
REMARK    8  A    between atoms: C2_11  and  C7_16 
REMARK    9  A    between atoms: C3_12  and  C11_20 
REMARK   10  A    between atoms: C13_22  and  C14_23 
REMARK   11  A    between atoms: C17_26  and  C19_28 
ROOT
ATOM      1  N1  UNK     1      -4.569  36.537 230.167  1.00  0.00    -0.362 N 
ATOM      2  C1  UNK     1      -2.989  38.005 232.005  1.00  0.00     0.101 C 
ATOM      3  C2  UNK     1      -2.857  38.140 230.483  1.00  0.00     0.052 C 
ATOM      4  C3  UNK     1      -4.169  37.122 232.425  1.00  0.00     0.052 C 
ATOM      5  C5  UNK     1      -3.625  37.407 229.646  1.00  0.00     0.018 C 
ATOM      6  C6  UNK     1      -4.876  36.418 231.513  1.00  0.00     0.018 C 
ATOM      7  C10 UNK     1      -3.549  37.436 228.143  1.00  0.00     0.069 C 
ATOM      8  C12 UNK     1      -6.015  35.484 231.823  1.00  0.00     0.069 C 
ATOM      9  H2  UNK     1      -5.116  35.992 229.511  1.00  0.00     0.165 HD
ENDROOT
BRANCH   3  10
ATOM     10  C7  UNK     1      -1.904  39.149 229.992  1.00  0.00     0.292 C 
ATOM     11  O3  UNK     1      -0.749  38.894 229.706  1.00  0.00    -0.259 OA
BRANCH  10  12
ATOM     12  O1  UNK     1      -2.540  40.343 229.928  1.00  0.00    -0.316 OA
BRANCH  12  13
ATOM     13  C14 UNK     1      -1.684  41.480 229.774  1.00  0.00     0.209 C 
BRANCH  13  14
ATOM     14  C13 UNK     1      -1.989  42.146 228.443  1.00  0.00     0.299 C 
BRANCH  14  15
ATOM     15  N2  UNK     1      -0.857  42.944 227.995  1.00  0.00     0.090 N 
ATOM     16  C20 UNK     1      -1.110  43.497 226.662  1.00  0.00     0.310 C 
BRANCH  15  17
ATOM     17  C17 UNK     1       0.371  42.146 227.988  1.00  0.00     0.310 C 
BRANCH  17  18
ATOM     18  C19 UNK     1       1.467  42.796 228.788  1.00  0.00    -0.030 A 
ATOM     19  C21 UNK     1       1.151  43.570 229.905  1.00  0.00     0.009 A 
ATOM     20  C24 UNK     1       2.167  44.173 230.647  1.00  0.00     0.001 A 
ATOM     21  C26 UNK     1       3.499  44.002 230.272  1.00  0.00     0.000 A 
ATOM     22  C25 UNK     1       3.816  43.230 229.154  1.00  0.00     0.001 A 
ATOM     23  C22 UNK     1       2.800  42.626 228.412  1.00  0.00     0.009 A 
ENDBRANCH  17  18
ENDBRANCH  15  17
ENDBRANCH  14  15
ENDBRANCH  13  14
ENDBRANCH  12  13
ENDBRANCH  10  12
ENDBRANCH   3  10
BRANCH   2  24
ATOM     24  C4  UNK     1      -1.713  37.464 232.582  1.00  0.00    -0.042 A 
ATOM     25  C8  UNK     1      -1.102  38.113 233.656  1.00  0.00     0.044 A 
ATOM     26  C15 UNK     1       0.085  37.610 234.191  1.00  0.00     0.103 A 
ATOM     27  C18 UNK     1       0.659  36.458 233.654  1.00  0.00     0.036 A 
ATOM     28  C16 UNK     1       0.048  35.809 232.581  1.00  0.00     0.003 A 
ATOM     29  C9  UNK     1      -1.137  36.312 232.046  1.00  0.00     0.008 A 
BRANCH  26  30
ATOM     30  N3  UNK     1       0.706  38.270 235.284  1.00  0.00    -0.116 N 
ATOM     31  O5  UNK     1       1.866  38.726 235.139  1.00  0.00    -0.532 OA
ATOM     32  O6  UNK     1       0.079  38.379 236.365  1.00  0.00    -0.532 OA
ENDBRANCH  26  30
ENDBRANCH   2  24
BRANCH   4  33
ATOM     33  C11 UNK     1      -4.515  37.122 233.856  1.00  0.00     0.291 C 
ATOM     34  O4  UNK     1      -4.201  36.227 234.620  1.00  0.00    -0.260 OA
BRANCH  33  35
ATOM     35  O2  UNK     1      -5.210  38.252 234.127  1.00  0.00    -0.323 OA
ATOM     36  C23 UNK     1      -6.507  38.045 234.694  1.00  0.00     0.213 C 
ENDBRANCH  33  35
ENDBRANCH   4  33
TORSDOF 11
ENDMDL
MODEL 2
REMARK VINA RESULT:      -7.0      4.524      8.995
REMARK  11 active torsions:
REMARK  status: ('A' for Active; 'I' for Inactive)
REMARK    1  A    between atoms: O1_1  and  C7_16 
REMARK    2  A    between atoms: O1_1  and  C14_23 
REMARK    3  A    between atoms: O2_2  and  C11_20 
REMARK    4  A    between atoms: N2_8  and  C13_22 
REMARK    5  A    between atoms: N2_8  and  C17_26 
REMARK    6  A    between atoms: N3_9  and  C15_24 
REMARK    7  A    between atoms: C1_10  and  C4_13 
REMARK    8  A    between atoms: C2_11  and  C7_16 
REMARK    9  A    between atoms: C3_12  and  C11_20 
REMARK   10  A    between atoms: C13_22  and  C14_23 
REMARK   11  A    between atoms: C17_26  and  C19_28 
ROOT
ATOM      1  N1  UNK     1      -1.258  37.548 237.885  1.00  0.00    -0.362 N 
ATOM      2  C1  UNK     1       0.178  36.261 235.809  1.00  0.00     0.101 C 
ATOM      3  C2  UNK     1       0.732  37.447 236.607  1.00  0.00     0.052 C 
ATOM      4  C3  UNK     1      -1.156  35.743 236.358  1.00  0.00     0.052 C 
ATOM      5  C5  UNK     1       0.002  38.038 237.580  1.00  0.00     0.018 C 
ATOM      6  C6  UNK     1      -1.818  36.408 237.331  1.00  0.00     0.018 C 
ATOM      7  C10 UNK     1       0.435  39.228 238.394  1.00  0.00     0.069 C 
ATOM      8  C12 UNK     1      -3.154  36.017 237.902  1.00  0.00     0.069 C 
ATOM      9  H2  UNK     1      -1.784  38.025 238.609  1.00  0.00     0.165 HD
ENDROOT
BRANCH   3  10
ATOM     10  C7  UNK     1       2.111  37.860 236.302  1.00  0.00     0.292 C 
ATOM     11  O3  UNK     1       2.384  38.866 235.672  1.00  0.00    -0.259 OA
BRANCH  10  12
ATOM     12  O1  UNK     1       2.959  36.948 236.833  1.00  0.00    -0.316 OA
BRANCH  12  13
ATOM     13  C14 UNK     1       3.660  37.379 238.004  1.00  0.00     0.209 C 
BRANCH  13  14
ATOM     14  C13 UNK     1       3.250  36.497 239.172  1.00  0.00     0.299 C 
BRANCH  14  15
ATOM     15  N2  UNK     1       2.513  35.331 238.704  1.00  0.00     0.090 N 
ATOM     16  C20 UNK     1       1.261  35.178 239.448  1.00  0.00     0.310 C 
BRANCH  15  17
ATOM     17  C17 UNK     1       3.327  34.120 238.826  1.00  0.00     0.310 C 
BRANCH  17  18
ATOM     18  C19 UNK     1       3.173  33.218 237.630  1.00  0.00    -0.030 A 
ATOM     19  C21 UNK     1       2.543  33.689 236.478  1.00  0.00     0.009 A 
ATOM     20  C24 UNK     1       2.400  32.853 235.370  1.00  0.00     0.001 A 
ATOM     21  C26 UNK     1       2.889  31.548 235.414  1.00  0.00     0.000 A 
ATOM     22  C25 UNK     1       3.518  31.076 236.566  1.00  0.00     0.001 A 
ATOM     23  C22 UNK     1       3.661  31.911 237.674  1.00  0.00     0.009 A 
ENDBRANCH  17  18
ENDBRANCH  15  17
ENDBRANCH  14  15
ENDBRANCH  13  14
ENDBRANCH  12  13
ENDBRANCH  10  12
ENDBRANCH   3  10
BRANCH   2  24
ATOM     24  C4  UNK     1       0.025  36.643 234.365  1.00  0.00    -0.042 A 
ATOM     25  C8  UNK     1      -0.903  37.618 233.995  1.00  0.00     0.044 A 
ATOM     26  C15 UNK     1      -1.046  37.972 232.653  1.00  0.00     0.103 A 
ATOM     27  C18 UNK     1      -0.260  37.352 231.681  1.00  0.00     0.036 A 
ATOM     28  C16 UNK     1       0.668  36.378 232.051  1.00  0.00     0.003 A 
ATOM     29  C9  UNK     1       0.810  36.024 233.392  1.00  0.00     0.008 A 
BRANCH  26  30
ATOM     30  N3  UNK     1      -1.989  38.964 232.277  1.00  0.00    -0.116 N 
ATOM     31  O5  UNK     1      -1.670  39.806 231.403  1.00  0.00    -0.532 OA
ATOM     32  O6  UNK     1      -3.117  38.971 232.827  1.00  0.00    -0.532 OA
ENDBRANCH  26  30
ENDBRANCH   2  24
BRANCH   4  33
ATOM     33  C11 UNK     1      -1.645  34.469 235.806  1.00  0.00     0.291 C 
ATOM     34  O4  UNK     1      -2.514  34.398 234.956  1.00  0.00    -0.260 OA
BRANCH  33  35
ATOM     35  O2  UNK     1      -0.969  33.458 236.401  1.00  0.00    -0.323 OA
ATOM     36  C23 UNK     1      -1.765  32.596 237.221  1.00  0.00     0.213 C 
ENDBRANCH  33  35
ENDBRANCH   4  33
TORSDOF 11
ENDMDL
MODEL 3
REMARK VINA RESULT:      -6.8      4.113      8.749
REMARK  11 active torsions:
REMARK  status: ('A' for Active; 'I' for Inactive)
REMARK    1  A    between atoms: O1_1  and  C7_16 
REMARK    2  A    between atoms: O1_1  and  C14_23 
REMARK    3  A    between atoms: O2_2  and  C11_20 
REMARK    4  A    between atoms: N2_8  and  C13_22 
REMARK    5  A    between atoms: N2_8  and  C17_26 
REMARK    6  A    between atoms: N3_9  and  C15_24 
REMARK    7  A    between atoms: C1_10  and  C4_13 
REMARK    8  A    between atoms: C2_11  and  C7_16 
REMARK    9  A    between atoms: C3_12  and  C11_20 
REMARK   10  A    between atoms: C13_22  and  C14_23 
REMARK   11  A    between atoms: C17_26  and  C19_28 
ROOT
ATOM      1  N1  UNK     1       2.534  34.818 236.358  1.00  0.00    -0.362 N 
ATOM      2  C1  UNK     1       0.192  36.118 235.434  1.00  0.00     0.101 C 
ATOM      3  C2  UNK     1       0.380  34.596 235.404  1.00  0.00     0.052 C 
ATOM      4  C3  UNK     1       1.328  36.845 236.162  1.00  0.00     0.052 C 
ATOM      5  C5  UNK     1       1.523  34.023 235.844  1.00  0.00     0.018 C 
ATOM      6  C6  UNK     1       2.440  36.186 236.560  1.00  0.00     0.018 C 
ATOM      7  C10 UNK     1       1.822  32.548 235.824  1.00  0.00     0.069 C 
ATOM      8  C12 UNK     1       3.631  36.811 237.233  1.00  0.00     0.069 C 
ATOM      9  H2  UNK     1       3.384  34.357 236.664  1.00  0.00     0.165 HD
ENDROOT
BRANCH   3  10
ATOM     10  C7  UNK     1      -0.766  33.801 234.936  1.00  0.00     0.292 C 
ATOM     11  O3  UNK     1      -0.836  33.321 233.819  1.00  0.00    -0.259 OA
BRANCH  10  12
ATOM     12  O1  UNK     1      -1.670  33.718 235.941  1.00  0.00    -0.316 OA
BRANCH  12  13
ATOM     13  C14 UNK     1      -3.040  33.785 235.534  1.00  0.00     0.209 C 
BRANCH  13  14
ATOM     14  C13 UNK     1      -3.558  35.191 235.786  1.00  0.00     0.299 C 
BRANCH  14  15
ATOM     15  N2  UNK     1      -4.460  35.607 234.721  1.00  0.00     0.090 N 
ATOM     16  C20 UNK     1      -3.814  35.469 233.414  1.00  0.00     0.310 C 
BRANCH  15  17
ATOM     17  C17 UNK     1      -4.901  36.989 234.924  1.00  0.00     0.310 C 
BRANCH  17  18
ATOM     18  C19 UNK     1      -6.402  37.103 234.934  1.00  0.00    -0.030 A 
ATOM     19  C21 UNK     1      -7.189  35.958 234.811  1.00  0.00     0.009 A 
ATOM     20  C24 UNK     1      -8.580  36.063 234.820  1.00  0.00     0.001 A 
ATOM     21  C26 UNK     1      -9.184  37.314 234.951  1.00  0.00     0.000 A 
ATOM     22  C25 UNK     1      -8.397  38.460 235.072  1.00  0.00     0.001 A 
ATOM     23  C22 UNK     1      -7.006  38.354 235.064  1.00  0.00     0.009 A 
ENDBRANCH  17  18
ENDBRANCH  15  17
ENDBRANCH  14  15
ENDBRANCH  13  14
ENDBRANCH  12  13
ENDBRANCH  10  12
ENDBRANCH   3  10
BRANCH   2  24
ATOM     24  C4  UNK     1       0.061  36.644 234.034  1.00  0.00    -0.042 A 
ATOM     25  C8  UNK     1      -0.965  37.534 233.715  1.00  0.00     0.044 A 
ATOM     26  C15 UNK     1      -1.086  38.022 232.414  1.00  0.00     0.103 A 
ATOM     27  C18 UNK     1      -0.181  37.621 231.431  1.00  0.00     0.036 A 
ATOM     28  C16 UNK     1       0.845  36.731 231.750  1.00  0.00     0.003 A 
ATOM     29  C9  UNK     1       0.966  36.243 233.050  1.00  0.00     0.008 A 
BRANCH  26  30
ATOM     30  N3  UNK     1      -2.130  38.929 232.089  1.00  0.00    -0.116 N 
ATOM     31  O5  UNK     1      -2.014  39.648 231.068  1.00  0.00    -0.532 OA
ATOM     32  O6  UNK     1      -3.139  38.985 232.832  1.00  0.00    -0.532 OA
ENDBRANCH  26  30
ENDBRANCH   2  24
BRANCH   4  33
ATOM     33  C11 UNK     1       1.121  38.275 236.444  1.00  0.00     0.291 C 
ATOM     34  O4  UNK     1       1.653  39.166 235.808  1.00  0.00    -0.260 OA
BRANCH  33  35
ATOM     35  O2  UNK     1       0.269  38.384 237.491  1.00  0.00    -0.323 OA
ATOM     36  C23 UNK     1       0.498  39.510 238.344  1.00  0.00     0.213 C 
ENDBRANCH  33  35
ENDBRANCH   4  33
TORSDOF 11
ENDMDL
MODEL 4
REMARK VINA RESULT:      -6.7      5.315      8.497
REMARK  11 active torsions:
REMARK  status: ('A' for Active; 'I' for Inactive)
REMARK    1  A    between atoms: O1_1  and  C7_16 
REMARK    2  A    between atoms: O1_1  and  C14_23 
REMARK    3  A    between atoms: O2_2  and  C11_20 
REMARK    4  A    between atoms: N2_8  and  C13_22 
REMARK    5  A    between atoms: N2_8  and  C17_26 
REMARK    6  A    between atoms: N3_9  and  C15_24 
REMARK    7  A    between atoms: C1_10  and  C4_13 
REMARK    8  A    between atoms: C2_11  and  C7_16 
REMARK    9  A    between atoms: C3_12  and  C11_20 
REMARK   10  A    between atoms: C13_22  and  C14_23 
REMARK   11  A    between atoms: C17_26  and  C19_28 
ROOT
ATOM      1  N1  UNK     1      -0.968  37.562 238.152  1.00  0.00    -0.362 N 
ATOM      2  C1  UNK     1       0.463  35.767 236.490  1.00  0.00     0.101 C 
ATOM      3  C2  UNK     1      -0.916  35.452 237.081  1.00  0.00     0.052 C 
ATOM      4  C3  UNK     1       0.910  37.209 236.756  1.00  0.00     0.052 C 
ATOM      5  C5  UNK     1      -1.554  36.336 237.881  1.00  0.00     0.018 C 
ATOM      6  C6  UNK     1       0.208  38.020 237.580  1.00  0.00     0.018 C 
ATOM      7  C10 UNK     1      -2.888  36.110 238.541  1.00  0.00     0.069 C 
ATOM      8  C12 UNK     1       0.586  39.429 237.948  1.00  0.00     0.069 C 
ATOM      9  H2  UNK     1      -1.466  38.194 238.768  1.00  0.00     0.165 HD
ENDROOT
BRANCH   3  10
ATOM     10  C7  UNK     1      -1.528  34.175 236.681  1.00  0.00     0.292 C 
ATOM     11  O3  UNK     1      -1.503  33.174 237.374  1.00  0.00    -0.259 OA
BRANCH  10  12
ATOM     12  O1  UNK     1      -2.089  34.333 235.458  1.00  0.00    -0.316 OA
BRANCH  12  13
ATOM     13  C14 UNK     1      -2.269  33.126 234.711  1.00  0.00     0.209 C 
BRANCH  13  14
ATOM     14  C13 UNK     1      -2.700  33.485 233.299  1.00  0.00     0.299 C 
BRANCH  14  15
ATOM     15  N2  UNK     1      -1.898  32.767 232.317  1.00  0.00     0.090 N 
ATOM     16  C20 UNK     1      -2.206  31.335 232.346  1.00  0.00     0.310 C 
BRANCH  15  17
ATOM     17  C17 UNK     1      -0.470  32.984 232.556  1.00  0.00     0.310 C 
BRANCH  17  18
ATOM     18  C19 UNK     1      -0.007  34.312 232.022  1.00  0.00    -0.030 A 
ATOM     19  C21 UNK     1       0.451  35.295 232.899  1.00  0.00     0.009 A 
ATOM     20  C24 UNK     1       0.881  36.528 232.403  1.00  0.00     0.001 A 
ATOM     21  C26 UNK     1       0.852  36.776 231.031  1.00  0.00     0.000 A 
ATOM     22  C25 UNK     1       0.392  35.793 230.154  1.00  0.00     0.001 A 
ATOM     23  C22 UNK     1      -0.037  34.561 230.649  1.00  0.00     0.009 A 
ENDBRANCH  17  18
ENDBRANCH  15  17
ENDBRANCH  14  15
ENDBRANCH  13  14
ENDBRANCH  12  13
ENDBRANCH  10  12
ENDBRANCH   3  10
BRANCH   2  24
ATOM     24  C4  UNK     1       1.483  34.807 237.031  1.00  0.00    -0.042 A 
ATOM     25  C8  UNK     1       2.039  33.836 236.197  1.00  0.00     0.044 A 
ATOM     26  C15 UNK     1       2.986  32.943 236.700  1.00  0.00     0.103 A 
ATOM     27  C18 UNK     1       3.377  33.022 238.037  1.00  0.00     0.036 A 
ATOM     28  C16 UNK     1       2.821  33.992 238.871  1.00  0.00     0.003 A 
ATOM     29  C9  UNK     1       1.874  34.884 238.368  1.00  0.00     0.008 A 
BRANCH  26  30
ATOM     30  N3  UNK     1       3.553  31.956 235.852  1.00  0.00    -0.116 N 
ATOM     31  O5  UNK     1       4.011  30.906 236.363  1.00  0.00    -0.532 OA
ATOM     32  O6  UNK     1       3.579  32.161 234.614  1.00  0.00    -0.532 OA
ENDBRANCH  26  30
ENDBRANCH   2  24
BRANCH   4  33
ATOM     33  C11 UNK     1       2.106  37.671 236.033  1.00  0.00     0.291 C 
ATOM     34  O4  UNK     1       2.058  38.381 235.045  1.00  0.00    -0.260 OA
BRANCH  33  35
ATOM     35  O2  UNK     1       3.201  37.174 236.657  1.00  0.00    -0.323 OA
ATOM     36  C23 UNK     1       3.780  38.034 237.643  1.00  0.00     0.213 C 
ENDBRANCH  33  35
ENDBRANCH   4  33
TORSDOF 11
ENDMDL
MODEL 5
REMARK VINA RESULT:      -6.7      4.322      9.257
REMARK  11 active torsions:
REMARK  status: ('A' for Active; 'I' for Inactive)
REMARK    1  A    between atoms: O1_1  and  C7_16 
REMARK    2  A    between atoms: O1_1  and  C14_23 
REMARK    3  A    between atoms: O2_2  and  C11_20 
REMARK    4  A    between atoms: N2_8  and  C13_22 
REMARK    5  A    between atoms: N2_8  and  C17_26 
REMARK    6  A    between atoms: N3_9  and  C15_24 
REMARK    7  A    between atoms: C1_10  and  C4_13 
REMARK    8  A    between atoms: C2_11  and  C7_16 
REMARK    9  A    between atoms: C3_12  and  C11_20 
REMARK   10  A    between atoms: C13_22  and  C14_23 
REMARK   11  A    between atoms: C17_26  and  C19_28 
ROOT
ATOM      1  N1  UNK     1       2.500  34.706 236.206  1.00  0.00    -0.362 N 
ATOM      2  C1  UNK     1       0.166  36.045 235.320  1.00  0.00     0.101 C 
ATOM      3  C2  UNK     1       0.335  34.522 235.268  1.00  0.00     0.052 C 
ATOM      4  C3  UNK     1       1.316  36.748 236.048  1.00  0.00     0.052 C 
ATOM      5  C5  UNK     1       1.475  33.929 235.690  1.00  0.00     0.018 C 
ATOM      6  C6  UNK     1       2.424  36.071 236.427  1.00  0.00     0.018 C 
ATOM      7  C10 UNK     1       1.757  32.451 235.647  1.00  0.00     0.069 C 
ATOM      8  C12 UNK     1       3.628  36.674 237.098  1.00  0.00     0.069 C 
ATOM      9  H2  UNK     1       3.347  34.230 236.498  1.00  0.00     0.165 HD
ENDROOT
BRANCH   3  10
ATOM     10  C7  UNK     1      -0.824  33.746 234.799  1.00  0.00     0.292 C 
ATOM     11  O3  UNK     1      -0.933  33.328 233.661  1.00  0.00    -0.259 OA
BRANCH  10  12
ATOM     12  O1  UNK     1      -1.689  33.602 235.831  1.00  0.00    -0.316 OA
BRANCH  12  13
ATOM     13  C14 UNK     1      -2.950  34.259 235.663  1.00  0.00     0.209 C 
BRANCH  13  14
ATOM     14  C13 UNK     1      -3.119  35.284 236.773  1.00  0.00     0.299 C 
BRANCH  14  15
ATOM     15  N2  UNK     1      -2.700  34.731 238.053  1.00  0.00     0.090 N 
ATOM     16  C20 UNK     1      -3.834  34.646 238.976  1.00  0.00     0.310 C 
BRANCH  15  17
ATOM     17  C17 UNK     1      -1.628  35.538 238.641  1.00  0.00     0.310 C 
BRANCH  17  18
ATOM     18  C19 UNK     1      -0.420  34.705 238.978  1.00  0.00    -0.030 A 
ATOM     19  C21 UNK     1      -0.467  33.319 238.836  1.00  0.00     0.009 A 
ATOM     20  C24 UNK     1       0.653  32.547 239.149  1.00  0.00     0.001 A 
ATOM     21  C26 UNK     1       1.819  33.162 239.602  1.00  0.00     0.000 A 
ATOM     22  C25 UNK     1       1.866  34.549 239.746  1.00  0.00     0.001 A 
ATOM     23  C22 UNK     1       0.747  35.321 239.433  1.00  0.00     0.009 A 
ENDBRANCH  17  18
ENDBRANCH  15  17
ENDBRANCH  14  15
ENDBRANCH  13  14
ENDBRANCH  12  13
ENDBRANCH  10  12
ENDBRANCH   3  10
BRANCH   2  24
ATOM     24  C4  UNK     1       0.030  36.592 233.928  1.00  0.00    -0.042 A 
ATOM     25  C8  UNK     1      -1.072  37.378 233.592  1.00  0.00     0.044 A 
ATOM     26  C15 UNK     1      -1.199  37.885 232.298  1.00  0.00     0.103 A 
ATOM     27  C18 UNK     1      -0.223  37.606 231.341  1.00  0.00     0.036 A 
ATOM     28  C16 UNK     1       0.879  36.820 231.677  1.00  0.00     0.003 A 
ATOM     29  C9  UNK     1       1.005  36.313 232.970  1.00  0.00     0.008 A 
BRANCH  26  30
ATOM     30  N3  UNK     1      -2.320  38.687 231.955  1.00  0.00    -0.116 N 
ATOM     31  O5  UNK     1      -3.170  38.953 232.839  1.00  0.00    -0.532 OA
ATOM     32  O6  UNK     1      -2.429  39.108 230.778  1.00  0.00    -0.532 OA
ENDBRANCH  26  30
ENDBRANCH   2  24
BRANCH   4  33
ATOM     33  C11 UNK     1       1.128  38.177 236.351  1.00  0.00     0.291 C 
ATOM     34  O4  UNK     1       1.610  39.072 235.680  1.00  0.00    -0.260 OA
BRANCH  33  35
ATOM     35  O2  UNK     1       0.357  38.280 237.459  1.00  0.00    -0.323 OA
ATOM     36  C23 UNK     1       0.604  39.437 238.264  1.00  0.00     0.213 C 
ENDBRANCH  33  35
ENDBRANCH   4  33
TORSDOF 11
ENDMDL
MODEL 6
REMARK VINA RESULT:      -6.6      3.564      6.779
REMARK  11 active torsions:
REMARK  status: ('A' for Active; 'I' for Inactive)
REMARK    1  A    between atoms: O1_1  and  C7_16 
REMARK    2  A    between atoms: O1_1  and  C14_23 
REMARK    3  A    between atoms: O2_2  and  C11_20 
REMARK    4  A    between atoms: N2_8  and  C13_22 
REMARK    5  A    between atoms: N2_8  and  C17_26 
REMARK    6  A    between atoms: N3_9  and  C15_24 
REMARK    7  A    between atoms: C1_10  and  C4_13 
REMARK    8  A    between atoms: C2_11  and  C7_16 
REMARK    9  A    between atoms: C3_12  and  C11_20 
REMARK   10  A    between atoms: C13_22  and  C14_23 
REMARK   11  A    between atoms: C17_26  and  C19_28 
ROOT
ATOM      1  N1  UNK     1      -0.111  38.804 235.829  1.00  0.00    -0.362 N 
ATOM      2  C1  UNK     1       1.601  36.591 235.382  1.00  0.00     0.101 C 
ATOM      3  C2  UNK     1       0.588  37.095 234.348  1.00  0.00     0.052 C 
ATOM      4  C3  UNK     1       1.706  37.503 236.609  1.00  0.00     0.052 C 
ATOM      5  C5  UNK     1      -0.218  38.148 234.613  1.00  0.00     0.018 C 
ATOM      6  C6  UNK     1       0.847  38.532 236.792  1.00  0.00     0.018 C 
ATOM      7  C10 UNK     1      -1.269  38.697 233.685  1.00  0.00     0.069 C 
ATOM      8  C12 UNK     1       0.829  39.452 237.982  1.00  0.00     0.069 C 
ATOM      9  H2  UNK     1      -0.741  39.579 236.000  1.00  0.00     0.165 HD
ENDROOT
BRANCH   3  10
ATOM     10  C7  UNK     1       0.588  36.417 233.042  1.00  0.00     0.292 C 
ATOM     11  O3  UNK     1       1.379  36.677 232.153  1.00  0.00    -0.259 OA
BRANCH  10  12
ATOM     12  O1  UNK     1      -0.411  35.502 233.033  1.00  0.00    -0.316 OA
BRANCH  12  13
ATOM     13  C14 UNK     1      -0.899  35.147 231.736  1.00  0.00     0.209 C 
BRANCH  13  14
ATOM     14  C13 UNK     1      -2.031  36.091 231.364  1.00  0.00     0.299 C 
BRANCH  14  15
ATOM     15  N2  UNK     1      -1.881  36.560 229.994  1.00  0.00     0.090 N 
ATOM     16  C20 UNK     1      -1.332  35.503 229.143  1.00  0.00     0.310 C 
BRANCH  15  17
ATOM     17  C17 UNK     1      -1.025  37.748 229.943  1.00  0.00     0.310 C 
BRANCH  17  18
ATOM     18  C19 UNK     1      -1.818  39.000 229.679  1.00  0.00    -0.030 A 
ATOM     19  C21 UNK     1      -1.233  40.250 229.878  1.00  0.00     0.009 A 
ATOM     20  C24 UNK     1      -1.968  41.411 229.633  1.00  0.00     0.001 A 
ATOM     21  C26 UNK     1      -3.287  41.321 229.191  1.00  0.00     0.000 A 
ATOM     22  C25 UNK     1      -3.873  40.070 228.993  1.00  0.00     0.001 A 
ATOM     23  C22 UNK     1      -3.138  38.909 229.237  1.00  0.00     0.009 A 
ENDBRANCH  17  18
ENDBRANCH  15  17
ENDBRANCH  14  15
ENDBRANCH  13  14
ENDBRANCH  12  13
ENDBRANCH  10  12
ENDBRANCH   3  10
BRANCH   2  24
ATOM     24  C4  UNK     1       1.244  35.196 235.810  1.00  0.00    -0.042 A 
ATOM     25  C8  UNK     1       2.125  34.143 235.562  1.00  0.00     0.044 A 
ATOM     26  C15 UNK     1       1.792  32.847 235.958  1.00  0.00     0.103 A 
ATOM     27  C18 UNK     1       0.579  32.605 236.604  1.00  0.00     0.036 A 
ATOM     28  C16 UNK     1      -0.301  33.659 236.852  1.00  0.00     0.003 A 
ATOM     29  C9  UNK     1       0.032  34.953 236.455  1.00  0.00     0.008 A 
BRANCH  26  30
ATOM     30  N3  UNK     1       2.688  31.775 235.707  1.00  0.00    -0.116 N 
ATOM     31  O5  UNK     1       3.631  31.947 234.897  1.00  0.00    -0.532 OA
ATOM     32  O6  UNK     1       2.513  30.684 236.303  1.00  0.00    -0.532 OA
ENDBRANCH  26  30
ENDBRANCH   2  24
BRANCH   4  33
ATOM     33  C11 UNK     1       2.812  37.229 237.541  1.00  0.00     0.291 C 
ATOM     34  O4  UNK     1       3.980  37.447 237.275  1.00  0.00    -0.260 OA
BRANCH  33  35
ATOM     35  O2  UNK     1       2.292  36.718 238.682  1.00  0.00    -0.323 OA
ATOM     36  C23 UNK     1       2.859  35.473 239.103  1.00  0.00     0.213 C 
ENDBRANCH  33  35
ENDBRANCH   4  33
TORSDOF 11
ENDMDL
MODEL 7
REMARK VINA RESULT:      -6.6      3.955      7.902
REMARK  11 active torsions:
REMARK  status: ('A' for Active; 'I' for Inactive)
REMARK    1  A    between atoms: O1_1  and  C7_16 
REMARK    2  A    between atoms: O1_1  and  C14_23 
REMARK    3  A    between atoms: O2_2  and  C11_20 
REMARK    4  A    between atoms: N2_8  and  C13_22 
REMARK    5  A    between atoms: N2_8  and  C17_26 
REMARK    6  A    between atoms: N3_9  and  C15_24 
REMARK    7  A    between atoms: C1_10  and  C4_13 
REMARK    8  A    between atoms: C2_11  and  C7_16 
REMARK    9  A    between atoms: C3_12  and  C11_20 
REMARK   10  A    between atoms: C13_22  and  C14_23 
REMARK   11  A    between atoms: C17_26  and  C19_28 
ROOT
ATOM      1  N1  UNK     1       2.431  34.707 236.341  1.00  0.00    -0.362 N 
ATOM      2  C1  UNK     1       0.140  36.108 235.436  1.00  0.00     0.101 C 
ATOM      3  C2  UNK     1       0.262  34.580 235.402  1.00  0.00     0.052 C 
ATOM      4  C3  UNK     1       1.311  36.784 236.158  1.00  0.00     0.052 C 
ATOM      5  C5  UNK     1       1.382  33.957 235.832  1.00  0.00     0.018 C 
ATOM      6  C6  UNK     1       2.396  36.077 236.547  1.00  0.00     0.018 C 
ATOM      7  C10 UNK     1       1.618  32.471 235.807  1.00  0.00     0.069 C 
ATOM      8  C12 UNK     1       3.618  36.649 237.213  1.00  0.00     0.069 C 
ATOM      9  H2  UNK     1       3.261  34.209 236.640  1.00  0.00     0.165 HD
ENDROOT
BRANCH   3  10
ATOM     10  C7  UNK     1      -0.920  33.836 234.939  1.00  0.00     0.292 C 
ATOM     11  O3  UNK     1      -0.972  33.262 233.867  1.00  0.00    -0.259 OA
BRANCH  10  12
ATOM     12  O1  UNK     1      -1.877  33.916 235.894  1.00  0.00    -0.316 OA
BRANCH  12  13
ATOM     13  C14 UNK     1      -3.193  34.207 235.413  1.00  0.00     0.209 C 
BRANCH  13  14
ATOM     14  C13 UNK     1      -3.504  35.668 235.692  1.00  0.00     0.299 C 
BRANCH  14  15
ATOM     15  N2  UNK     1      -4.186  36.275 234.557  1.00  0.00     0.090 N 
ATOM     16  C20 UNK     1      -5.359  37.029 235.001  1.00  0.00     0.310 C 
BRANCH  15  17
ATOM     17  C17 UNK     1      -4.578  35.255 233.581  1.00  0.00     0.310 C 
BRANCH  17  18
ATOM     18  C19 UNK     1      -4.085  35.583 232.198  1.00  0.00    -0.030 A 
ATOM     19  C21 UNK     1      -2.969  34.926 231.681  1.00  0.00     0.009 A 
ATOM     20  C24 UNK     1      -2.511  35.229 230.398  1.00  0.00     0.001 A 
ATOM     21  C26 UNK     1      -3.170  36.190 229.633  1.00  0.00     0.000 A 
ATOM     22  C25 UNK     1      -4.286  36.849 230.149  1.00  0.00     0.001 A 
ATOM     23  C22 UNK     1      -4.744  36.545 231.431  1.00  0.00     0.009 A 
ENDBRANCH  17  18
ENDBRANCH  15  17
ENDBRANCH  14  15
ENDBRANCH  13  14
ENDBRANCH  12  13
ENDBRANCH  10  12
ENDBRANCH   3  10
BRANCH   2  24
ATOM     24  C4  UNK     1       0.023  36.643 234.038  1.00  0.00    -0.042 A 
ATOM     25  C8  UNK     1      -0.980  37.561 233.723  1.00  0.00     0.044 A 
ATOM     26  C15 UNK     1      -1.089  38.057 232.423  1.00  0.00     0.103 A 
ATOM     27  C18 UNK     1      -0.195  37.636 231.439  1.00  0.00     0.036 A 
ATOM     28  C16 UNK     1       0.808  36.718 231.754  1.00  0.00     0.003 A 
ATOM     29  C9  UNK     1       0.917  36.223 233.053  1.00  0.00     0.008 A 
BRANCH  26  30
ATOM     30  N3  UNK     1      -2.109  38.991 232.103  1.00  0.00    -0.116 N 
ATOM     31  O5  UNK     1      -1.985  39.696 231.072  1.00  0.00    -0.532 OA
ATOM     32  O6  UNK     1      -3.106  39.085 232.858  1.00  0.00    -0.532 OA
ENDBRANCH  26  30
ENDBRANCH   2  24
BRANCH   4  33
ATOM     33  C11 UNK     1       1.167  38.220 236.444  1.00  0.00     0.291 C 
ATOM     34  O4  UNK     1       1.696  39.092 235.778  1.00  0.00    -0.260 OA
BRANCH  33  35
ATOM     35  O2  UNK     1       0.375  38.362 237.534  1.00  0.00    -0.323 OA
ATOM     36  C23 UNK     1       0.442  39.641 238.171  1.00  0.00     0.213 C 
ENDBRANCH  33  35
ENDBRANCH   4  33
TORSDOF 11
ENDMDL
MODEL 8
REMARK VINA RESULT:      -6.6      4.489      7.676
REMARK  11 active torsions:
REMARK  status: ('A' for Active; 'I' for Inactive)
REMARK    1  A    between atoms: O1_1  and  C7_16 
REMARK    2  A    between atoms: O1_1  and  C14_23 
REMARK    3  A    between atoms: O2_2  and  C11_20 
REMARK    4  A    between atoms: N2_8  and  C13_22 
REMARK    5  A    between atoms: N2_8  and  C17_26 
REMARK    6  A    between atoms: N3_9  and  C15_24 
REMARK    7  A    between atoms: C1_10  and  C4_13 
REMARK    8  A    between atoms: C2_11  and  C7_16 
REMARK    9  A    between atoms: C3_12  and  C11_20 
REMARK   10  A    between atoms: C13_22  and  C14_23 
REMARK   11  A    between atoms: C17_26  and  C19_28 
ROOT
ATOM      1  N1  UNK     1      -4.414  36.042 235.678  1.00  0.00    -0.362 N 
ATOM      2  C1  UNK     1      -2.141  35.949 233.989  1.00  0.00     0.101 C 
ATOM      3  C2  UNK     1      -2.413  34.922 235.094  1.00  0.00     0.052 C 
ATOM      4  C3  UNK     1      -3.302  36.929 233.787  1.00  0.00     0.052 C 
ATOM      5  C5  UNK     1      -3.505  35.016 235.885  1.00  0.00     0.018 C 
ATOM      6  C6  UNK     1      -4.353  36.954 234.636  1.00  0.00     0.018 C 
ATOM      7  C10 UNK     1      -3.844  34.086 237.018  1.00  0.00     0.069 C 
ATOM      8  C12 UNK     1      -5.515  37.906 234.559  1.00  0.00     0.069 C 
ATOM      9  H2  UNK     1      -5.214  36.092 236.299  1.00  0.00     0.165 HD
ENDROOT
BRANCH   3  10
ATOM     10  C7  UNK     1      -1.462  33.804 235.202  1.00  0.00     0.292 C 
ATOM     11  O3  UNK     1      -1.451  32.859 234.435  1.00  0.00    -0.259 OA
BRANCH  10  12
ATOM     12  O1  UNK     1      -0.651  34.031 236.263  1.00  0.00    -0.316 OA
BRANCH  12  13
ATOM     13  C14 UNK     1       0.638  33.415 236.187  1.00  0.00     0.209 C 
BRANCH  13  14
ATOM     14  C13 UNK     1       1.678  34.488 235.917  1.00  0.00     0.299 C 
BRANCH  14  15
ATOM     15  N2  UNK     1       2.820  34.334 236.807  1.00  0.00     0.090 N 
ATOM     16  C20 UNK     1       3.307  32.953 236.790  1.00  0.00     0.310 C 
BRANCH  15  17
ATOM     17  C17 UNK     1       2.470  34.731 238.173  1.00  0.00     0.310 C 
BRANCH  17  18
ATOM     18  C19 UNK     1       2.898  36.143 238.474  1.00  0.00    -0.030 A 
ATOM     19  C21 UNK     1       2.617  36.706 239.719  1.00  0.00     0.009 A 
ATOM     20  C24 UNK     1       3.014  38.014 239.998  1.00  0.00     0.001 A 
ATOM     21  C26 UNK     1       3.691  38.758 239.033  1.00  0.00     0.000 A 
ATOM     22  C25 UNK     1       3.971  38.196 237.787  1.00  0.00     0.001 A 
ATOM     23  C22 UNK     1       3.575  36.888 237.508  1.00  0.00     0.009 A 
ENDBRANCH  17  18
ENDBRANCH  15  17
ENDBRANCH  14  15
ENDBRANCH  13  14
ENDBRANCH  12  13
ENDBRANCH  10  12
ENDBRANCH   3  10
BRANCH   2  24
ATOM     24  C4  UNK     1      -0.880  36.705 234.292  1.00  0.00    -0.042 A 
ATOM     25  C8  UNK     1      -0.771  37.435 235.476  1.00  0.00     0.044 A 
ATOM     26  C15 UNK     1       0.402  38.139 235.757  1.00  0.00     0.103 A 
ATOM     27  C18 UNK     1       1.465  38.110 234.854  1.00  0.00     0.036 A 
ATOM     28  C16 UNK     1       1.356  37.381 233.670  1.00  0.00     0.003 A 
ATOM     29  C9  UNK     1       0.184  36.679 233.390  1.00  0.00     0.008 A 
BRANCH  26  30
ATOM     30  N3  UNK     1       0.514  38.881 236.962  1.00  0.00    -0.116 N 
ATOM     31  O5  UNK     1      -0.011  38.425 238.007  1.00  0.00    -0.532 OA
ATOM     32  O6  UNK     1       1.134  39.971 236.949  1.00  0.00    -0.532 OA
ENDBRANCH  26  30
ENDBRANCH   2  24
BRANCH   4  33
ATOM     33  C11 UNK     1      -3.232  37.797 232.600  1.00  0.00     0.291 C 
ATOM     34  O4  UNK     1      -2.899  38.968 232.646  1.00  0.00    -0.260 OA
BRANCH  33  35
ATOM     35  O2  UNK     1      -3.591  37.069 231.516  1.00  0.00    -0.323 OA
ATOM     36  C23 UNK     1      -3.884  37.833 230.342  1.00  0.00     0.213 C 
ENDBRANCH  33  35
ENDBRANCH   4  33
TORSDOF 11
ENDMDL
MODEL 9
REMARK VINA RESULT:      -6.5      4.261      8.912
REMARK  11 active torsions:
REMARK  status: ('A' for Active; 'I' for Inactive)
REMARK    1  A    between atoms: O1_1  and  C7_16 
REMARK    2  A    between atoms: O1_1  and  C14_23 
REMARK    3  A    between atoms: O2_2  and  C11_20 
REMARK    4  A    between atoms: N2_8  and  C13_22 
REMARK    5  A    between atoms: N2_8  and  C17_26 
REMARK    6  A    between atoms: N3_9  and  C15_24 
REMARK    7  A    between atoms: C1_10  and  C4_13 
REMARK    8  A    between atoms: C2_11  and  C7_16 
REMARK    9  A    between atoms: C3_12  and  C11_20 
REMARK   10  A    between atoms: C13_22  and  C14_23 
REMARK   11  A    between atoms: C17_26  and  C19_28 
ROOT
ATOM      1  N1  UNK     1      -1.019  34.951 236.468  1.00  0.00    -0.362 N 
ATOM      2  C1  UNK     1       0.664  35.532 234.263  1.00  0.00     0.101 C 
ATOM      3  C2  UNK     1       0.528  36.448 235.485  1.00  0.00     0.052 C 
ATOM      4  C3  UNK     1      -0.074  34.200 234.433  1.00  0.00     0.052 C 
ATOM      5  C5  UNK     1      -0.300  36.135 236.507  1.00  0.00     0.018 C 
ATOM      6  C6  UNK     1      -0.890  33.980 235.488  1.00  0.00     0.018 C 
ATOM      7  C10 UNK     1      -0.534  36.980 237.730  1.00  0.00     0.069 C 
ATOM      8  C12 UNK     1      -1.699  32.733 235.722  1.00  0.00     0.069 C 
ATOM      9  H2  UNK     1      -1.642  34.756 237.243  1.00  0.00     0.165 HD
ENDROOT
BRANCH   3  10
ATOM     10  C7  UNK     1       1.389  37.642 235.512  1.00  0.00     0.292 C 
ATOM     11  O3  UNK     1       1.028  38.736 235.118  1.00  0.00    -0.259 OA
BRANCH  10  12
ATOM     12  O1  UNK     1       2.590  37.293 236.033  1.00  0.00    -0.316 OA
BRANCH  12  13
ATOM     13  C14 UNK     1       3.157  38.241 236.941  1.00  0.00     0.209 C 
BRANCH  13  14
ATOM     14  C13 UNK     1       3.783  37.491 238.105  1.00  0.00     0.299 C 
BRANCH  14  15
ATOM     15  N2  UNK     1       2.780  37.168 239.110  1.00  0.00     0.090 N 
ATOM     16  C20 UNK     1       2.712  38.219 240.128  1.00  0.00     0.310 C 
BRANCH  15  17
ATOM     17  C17 UNK     1       3.069  35.876 239.735  1.00  0.00     0.310 C 
BRANCH  17  18
ATOM     18  C19 UNK     1       2.594  34.725 238.888  1.00  0.00    -0.030 A 
ATOM     19  C21 UNK     1       1.499  33.964 239.297  1.00  0.00     0.009 A 
ATOM     20  C24 UNK     1       1.058  32.897 238.512  1.00  0.00     0.001 A 
ATOM     21  C26 UNK     1       1.712  32.593 237.318  1.00  0.00     0.000 A 
ATOM     22  C25 UNK     1       2.808  33.354 236.910  1.00  0.00     0.001 A 
ATOM     23  C22 UNK     1       3.249  34.420 237.694  1.00  0.00     0.009 A 
ENDBRANCH  17  18
ENDBRANCH  15  17
ENDBRANCH  14  15
ENDBRANCH  13  14
ENDBRANCH  12  13
ENDBRANCH  10  12
ENDBRANCH   3  10
BRANCH   2  24
ATOM     24  C4  UNK     1       0.169  36.240 233.035  1.00  0.00    -0.042 A 
ATOM     25  C8  UNK     1      -1.145  36.705 232.980  1.00  0.00     0.044 A 
ATOM     26  C15 UNK     1      -1.605  37.363 231.838  1.00  0.00     0.103 A 
ATOM     27  C18 UNK     1      -0.750  37.556 230.753  1.00  0.00     0.036 A 
ATOM     28  C16 UNK     1       0.564  37.090 230.808  1.00  0.00     0.003 A 
ATOM     29  C9  UNK     1       1.023  36.433 231.949  1.00  0.00     0.008 A 
BRANCH  26  30
ATOM     30  N3  UNK     1      -2.942  37.837 231.781  1.00  0.00    -0.116 N 
ATOM     31  O5  UNK     1      -3.883  37.019 231.914  1.00  0.00    -0.532 OA
ATOM     32  O6  UNK     1      -3.145  39.062 231.601  1.00  0.00    -0.532 OA
ENDBRANCH  26  30
ENDBRANCH   2  24
BRANCH   4  33
ATOM     33  C11 UNK     1       0.189  33.167 233.417  1.00  0.00     0.291 C 
ATOM     34  O4  UNK     1      -0.525  32.983 232.448  1.00  0.00    -0.260 OA
BRANCH  33  35
ATOM     35  O2  UNK     1       1.321  32.507 233.762  1.00  0.00    -0.323 OA
ATOM     36  C23 UNK     1       1.304  31.099 233.507  1.00  0.00     0.213 C 
ENDBRANCH  33  35
ENDBRANCH   4  33
TORSDOF 11
ENDMDL
