MODEL 1
REMARK VINA RESULT:      -6.9      0.000      0.000
REMARK  2 active torsions:
REMARK  status: ('A' for Active; 'I' for Inactive)
REMARK    1  A    between atoms: N2_3  and  C7_12 
REMARK    2  A    between atoms: C1_6  and  C7_12 
ROOT
ATOM      1  O1  UNK     1       1.749  38.382 234.844  1.00  0.00    -0.292 OA
ATOM      2  N1  UNK     1      -0.115  34.276 234.070  1.00  0.00    -0.353 N 
ATOM      3  C1  UNK     1       1.302  37.114 236.847  1.00  0.00     0.079 C 
ATOM      4  C2  UNK     1       0.171  36.158 237.291  1.00  0.00     0.020 C 
ATOM      5  C3  UNK     1       0.151  34.830 236.520  1.00  0.00     0.059 C 
ATOM      6  C4  UNK     1       0.275  35.121 235.069  1.00  0.00     0.026 A 
ATOM      7  C5  UNK     1       0.794  36.263 234.500  1.00  0.00     0.045 A 
ATOM      8  C6  UNK     1       1.298  37.347 235.328  1.00  0.00     0.168 C 
ATOM      9  C8  UNK     1       0.709  36.112 233.085  1.00  0.00     0.007 A 
ATOM     10  C9  UNK     1       0.136  34.857 232.845  1.00  0.00     0.045 A 
ATOM     11  C10 UNK     1      -0.708  32.968 234.260  1.00  0.00     0.156 C 
ATOM     12  C11 UNK     1       1.062  36.912 231.979  1.00  0.00     0.015 A 
ATOM     13  C12 UNK     1      -0.099  34.368 231.555  1.00  0.00     0.030 A 
ATOM     14  C15 UNK     1       0.831  36.434 230.684  1.00  0.00     0.001 A 
ATOM     15  C16 UNK     1       0.260  35.181 230.477  1.00  0.00     0.002 A 
ENDROOT
BRANCH   3  16
ATOM     16  C7  UNK     1       2.680  36.618 237.276  1.00  0.00     0.142 C 
BRANCH  16  17
ATOM     17  N2  UNK     1       3.179  37.336 238.439  1.00  0.00    -0.345 N 
ATOM     18  C13 UNK     1       3.237  36.868 239.715  1.00  0.00     0.079 A 
ATOM     19  N3  UNK     1       3.740  37.766 240.533  1.00  0.00    -0.355 N 
ATOM     20  C18 UNK     1       2.781  35.513 240.088  1.00  0.00     0.089 C 
ATOM     21  C17 UNK     1       4.011  38.851 239.738  1.00  0.00     0.106 A 
ATOM     22  H3  UNK     1       3.895  37.675 241.538  1.00  0.00     0.166 HD
ATOM     23  C14 UNK     1       3.669  38.604 238.429  1.00  0.00     0.109 A 
ENDBRANCH  16  17
ENDBRANCH   3  16
TORSDOF 2
ENDMDL
MODEL 2
REMARK VINA RESULT:      -6.5      2.127      6.728
REMARK  2 active torsions:
REMARK  status: ('A' for Active; 'I' for Inactive)
REMARK    1  A    between atoms: N2_3  and  C7_12 
REMARK    2  A    between atoms: C1_6  and  C7_12 
ROOT
ATOM      1  O1  UNK     1       1.692  38.777 235.168  1.00  0.00    -0.292 OA
ATOM      2  N1  UNK     1       2.090  35.490 238.326  1.00  0.00    -0.353 N 
ATOM      3  C1  UNK     1       0.565  36.723 234.594  1.00  0.00     0.079 C 
ATOM      4  C2  UNK     1       0.882  35.224 234.794  1.00  0.00     0.020 C 
ATOM      5  C3  UNK     1       0.822  34.774 236.262  1.00  0.00     0.059 C 
ATOM      6  C4  UNK     1       1.572  35.752 237.090  1.00  0.00     0.026 A 
ATOM      7  C5  UNK     1       1.864  37.058 236.760  1.00  0.00     0.045 A 
ATOM      8  C6  UNK     1       1.430  37.622 235.492  1.00  0.00     0.168 C 
ATOM      9  C8  UNK     1       2.602  37.617 237.843  1.00  0.00     0.007 A 
ATOM     10  C9  UNK     1       2.728  36.612 238.811  1.00  0.00     0.045 A 
ATOM     11  C10 UNK     1       1.992  34.226 239.027  1.00  0.00     0.156 C 
ATOM     12  C11 UNK     1       3.178  38.878 238.106  1.00  0.00     0.015 A 
ATOM     13  C12 UNK     1       3.400  36.810 240.022  1.00  0.00     0.030 A 
ATOM     14  C15 UNK     1       3.853  39.087 239.314  1.00  0.00     0.001 A 
ATOM     15  C16 UNK     1       3.961  38.068 240.256  1.00  0.00     0.002 A 
ENDROOT
BRANCH   3  16
ATOM     16  C7  UNK     1      -0.908  37.040 234.835  1.00  0.00     0.142 C 
BRANCH  16  17
ATOM     17  N2  UNK     1      -1.555  37.566 233.642  1.00  0.00    -0.345 N 
ATOM     18  C13 UNK     1      -2.198  36.843 232.685  1.00  0.00     0.079 A 
ATOM     19  N3  UNK     1      -2.672  37.619 231.736  1.00  0.00    -0.355 N 
ATOM     20  C18 UNK     1      -2.322  35.373 232.748  1.00  0.00     0.089 C 
ATOM     21  C17 UNK     1      -2.311  38.890 232.109  1.00  0.00     0.106 A 
ATOM     22  H3  UNK     1      -3.193  37.339 230.905  1.00  0.00     0.166 HD
ATOM     23  C14 UNK     1      -1.614  38.879 233.295  1.00  0.00     0.109 A 
ENDBRANCH  16  17
ENDBRANCH   3  16
TORSDOF 2
ENDMDL
MODEL 3
REMARK VINA RESULT:      -6.1      2.501      7.182
REMARK  2 active torsions:
REMARK  status: ('A' for Active; 'I' for Inactive)
REMARK    1  A    between atoms: N2_3  and  C7_12 
REMARK    2  A    between atoms: C1_6  and  C7_12 
ROOT
ATOM      1  O1  UNK     1       0.340  34.200 233.371  1.00  0.00    -0.292 OA
ATOM      2  N1  UNK     1       2.114  36.993 236.531  1.00  0.00    -0.353 N 
ATOM      3  C1  UNK     1      -0.023  36.543 232.926  1.00  0.00     0.079 C 
ATOM      4  C2  UNK     1      -0.328  37.776 233.806  1.00  0.00     0.020 C 
ATOM      5  C3  UNK     1       0.846  38.192 234.706  1.00  0.00     0.059 C 
ATOM      6  C4  UNK     1       1.382  36.982 235.379  1.00  0.00     0.026 A 
ATOM      7  C5  UNK     1       1.235  35.677 234.964  1.00  0.00     0.045 A 
ATOM      8  C6  UNK     1       0.498  35.357 233.752  1.00  0.00     0.168 C 
ATOM      9  C8  UNK     1       1.903  34.849 235.913  1.00  0.00     0.007 A 
ATOM     10  C9  UNK     1       2.446  35.701 236.883  1.00  0.00     0.045 A 
ATOM     11  C10 UNK     1       2.487  38.176 237.279  1.00  0.00     0.156 C 
ATOM     12  C11 UNK     1       2.107  33.460 236.049  1.00  0.00     0.015 A 
ATOM     13  C12 UNK     1       3.178  35.230 237.978  1.00  0.00     0.030 A 
ATOM     14  C15 UNK     1       2.838  32.977 237.141  1.00  0.00     0.001 A 
ATOM     15  C16 UNK     1       3.365  33.849 238.089  1.00  0.00     0.002 A 
ENDROOT
BRANCH   3  16
ATOM     16  C7  UNK     1       0.974  36.858 231.813  1.00  0.00     0.142 C 
BRANCH  16  17
ATOM     17  N2  UNK     1       0.448  36.519 230.499  1.00  0.00    -0.345 N 
ATOM     18  C13 UNK     1      -0.338  37.305 229.715  1.00  0.00     0.079 A 
ATOM     19  N3  UNK     1      -0.642  36.705 228.586  1.00  0.00    -0.355 N 
ATOM     20  C18 UNK     1      -0.770  38.657 230.123  1.00  0.00     0.089 C 
ATOM     21  C17 UNK     1      -0.021  35.483 228.660  1.00  0.00     0.106 A 
ATOM     22  H3  UNK     1      -1.215  37.067 227.823  1.00  0.00     0.166 HD
ATOM     23  C14 UNK     1       0.665  35.347 229.845  1.00  0.00     0.109 A 
ENDBRANCH  16  17
ENDBRANCH   3  16
TORSDOF 2
ENDMDL
MODEL 4
REMARK VINA RESULT:      -6.1      2.856      6.476
REMARK  2 active torsions:
REMARK  status: ('A' for Active; 'I' for Inactive)
REMARK    1  A    between atoms: N2_3  and  C7_12 
REMARK    2  A    between atoms: C1_6  and  C7_12 
ROOT
ATOM      1  O1  UNK     1       0.012  38.592 234.621  1.00  0.00    -0.292 OA
ATOM      2  N1  UNK     1       2.411  35.239 236.605  1.00  0.00    -0.353 N 
ATOM      3  C1  UNK     1      -0.467  36.395 233.750  1.00  0.00     0.079 C 
ATOM      4  C2  UNK     1       0.384  35.137 233.462  1.00  0.00     0.020 C 
ATOM      5  C3  UNK     1       0.914  34.451 234.730  1.00  0.00     0.059 C 
ATOM      6  C4  UNK     1       1.496  35.485 235.623  1.00  0.00     0.026 A 
ATOM      7  C5  UNK     1       1.217  36.834 235.610  1.00  0.00     0.045 A 
ATOM      8  C6  UNK     1       0.265  37.391 234.662  1.00  0.00     0.168 C 
ATOM      9  C8  UNK     1       2.005  37.443 236.630  1.00  0.00     0.007 A 
ATOM     10  C9  UNK     1       2.743  36.419 237.238  1.00  0.00     0.045 A 
ATOM     11  C10 UNK     1       2.959  33.940 236.938  1.00  0.00     0.156 C 
ATOM     12  C11 UNK     1       2.170  38.761 237.104  1.00  0.00     0.015 A 
ATOM     13  C12 UNK     1       3.633  36.653 238.292  1.00  0.00     0.030 A 
ATOM     14  C15 UNK     1       3.057  39.007 238.158  1.00  0.00     0.001 A 
ATOM     15  C16 UNK     1       3.776  37.968 238.741  1.00  0.00     0.002 A 
ENDROOT
BRANCH   3  16
ATOM     16  C7  UNK     1      -1.820  36.049 234.366  1.00  0.00     0.142 C 
BRANCH  16  17
ATOM     17  N2  UNK     1      -2.881  36.914 233.871  1.00  0.00    -0.345 N 
ATOM     18  C13 UNK     1      -4.078  37.151 234.470  1.00  0.00     0.079 A 
ATOM     19  N3  UNK     1      -4.813  37.981 233.764  1.00  0.00    -0.355 N 
ATOM     20  C18 UNK     1      -4.462  36.530 235.755  1.00  0.00     0.089 C 
ATOM     21  C17 UNK     1      -4.045  38.282 232.667  1.00  0.00     0.106 A 
ATOM     22  H3  UNK     1      -5.748  38.326 233.983  1.00  0.00     0.166 HD
ATOM     23  C14 UNK     1      -2.836  37.628 232.714  1.00  0.00     0.109 A 
ENDBRANCH  16  17
ENDBRANCH   3  16
TORSDOF 2
ENDMDL
MODEL 5
REMARK VINA RESULT:      -6.0      2.326      6.971
REMARK  2 active torsions:
REMARK  status: ('A' for Active; 'I' for Inactive)
REMARK    1  A    between atoms: N2_3  and  C7_12 
REMARK    2  A    between atoms: C1_6  and  C7_12 
ROOT
ATOM      1  O1  UNK     1      -1.040  36.308 237.023  1.00  0.00    -0.292 OA
ATOM      2  N1  UNK     1       2.823  37.189 239.310  1.00  0.00    -0.353 N 
ATOM      3  C1  UNK     1       0.019  38.383 236.399  1.00  0.00     0.079 C 
ATOM      4  C2  UNK     1       0.783  39.483 237.171  1.00  0.00     0.020 C 
ATOM      5  C3  UNK     1       2.146  39.020 237.709  1.00  0.00     0.059 C 
ATOM      6  C4  UNK     1       1.973  37.705 238.376  1.00  0.00     0.026 A 
ATOM      7  C5  UNK     1       0.951  36.805 238.168  1.00  0.00     0.045 A 
ATOM      8  C6  UNK     1      -0.110  37.087 237.214  1.00  0.00     0.168 C 
ATOM      9  C8  UNK     1       1.184  35.689 239.023  1.00  0.00     0.007 A 
ATOM     10  C9  UNK     1       2.365  35.956 239.726  1.00  0.00     0.045 A 
ATOM     11  C10 UNK     1       4.025  37.832 239.801  1.00  0.00     0.156 C 
ATOM     12  C11 UNK     1       0.514  34.473 239.273  1.00  0.00     0.015 A 
ATOM     13  C12 UNK     1       2.903  35.068 240.664  1.00  0.00     0.030 A 
ATOM     14  C15 UNK     1       1.043  33.577 240.208  1.00  0.00     0.001 A 
ATOM     15  C16 UNK     1       2.219  33.871 240.892  1.00  0.00     0.002 A 
ENDROOT
BRANCH   3  16
ATOM     16  C7  UNK     1       0.664  38.068 235.051  1.00  0.00     0.142 C 
BRANCH  16  17
ATOM     17  N2  UNK     1      -0.304  38.092 233.965  1.00  0.00    -0.345 N 
ATOM     18  C13 UNK     1      -0.150  37.538 232.732  1.00  0.00     0.079 A 
ATOM     19  N3  UNK     1      -1.211  37.737 231.982  1.00  0.00    -0.355 N 
ATOM     20  C18 UNK     1       1.073  36.813 232.332  1.00  0.00     0.089 C 
ATOM     21  C17 UNK     1      -2.074  38.450 232.776  1.00  0.00     0.106 A 
ATOM     22  H3  UNK     1      -1.360  37.429 231.020  1.00  0.00     0.166 HD
ATOM     23  C14 UNK     1      -1.528  38.682 234.018  1.00  0.00     0.109 A 
ENDBRANCH  16  17
ENDBRANCH   3  16
TORSDOF 2
ENDMDL
MODEL 6
REMARK VINA RESULT:      -6.0      5.604      8.722
REMARK  2 active torsions:
REMARK  status: ('A' for Active; 'I' for Inactive)
REMARK    1  A    between atoms: N2_3  and  C7_12 
REMARK    2  A    between atoms: C1_6  and  C7_12 
ROOT
ATOM      1  O1  UNK     1      -0.068  38.925 229.374  1.00  0.00    -0.292 OA
ATOM      2  N1  UNK     1      -2.844  37.928 232.871  1.00  0.00    -0.353 N 
ATOM      3  C1  UNK     1      -2.197  40.056 229.291  1.00  0.00     0.079 C 
ATOM      4  C2  UNK     1      -3.646  39.661 229.653  1.00  0.00     0.020 C 
ATOM      5  C3  UNK     1      -3.873  39.476 231.161  1.00  0.00     0.059 C 
ATOM      6  C4  UNK     1      -2.774  38.640 231.709  1.00  0.00     0.026 A 
ATOM      7  C5  UNK     1      -1.530  38.448 231.150  1.00  0.00     0.045 A 
ATOM      8  C6  UNK     1      -1.165  39.094 229.899  1.00  0.00     0.168 C 
ATOM      9  C8  UNK     1      -0.807  37.570 232.009  1.00  0.00     0.007 A 
ATOM     10  C9  UNK     1      -1.655  37.261 233.080  1.00  0.00     0.045 A 
ATOM     11  C10 UNK     1      -3.990  37.871 233.755  1.00  0.00     0.156 C 
ATOM     12  C11 UNK     1       0.485  37.004 231.991  1.00  0.00     0.015 A 
ATOM     13  C12 UNK     1      -1.272  36.416 234.127  1.00  0.00     0.030 A 
ATOM     14  C15 UNK     1       0.879  36.157 233.033  1.00  0.00     0.001 A 
ATOM     15  C16 UNK     1       0.013  35.869 234.084  1.00  0.00     0.002 A 
ENDROOT
BRANCH   3  16
ATOM     16  C7  UNK     1      -1.864  41.485 229.714  1.00  0.00     0.142 C 
BRANCH  16  17
ATOM     17  N2  UNK     1      -1.021  42.159 228.739  1.00  0.00    -0.345 N 
ATOM     18  C13 UNK     1      -1.420  42.681 227.548  1.00  0.00     0.079 A 
ATOM     19  N3  UNK     1      -0.413  43.223 226.899  1.00  0.00    -0.355 N 
ATOM     20  C18 UNK     1      -2.821  42.622 227.083  1.00  0.00     0.089 C 
ATOM     21  C17 UNK     1       0.672  43.035 227.718  1.00  0.00     0.106 A 
ATOM     22  H3  UNK     1      -0.434  43.683 225.988  1.00  0.00     0.166 HD
ATOM     23  C14 UNK     1       0.316  42.374 228.870  1.00  0.00     0.109 A 
ENDBRANCH  16  17
ENDBRANCH   3  16
TORSDOF 2
ENDMDL
MODEL 7
REMARK VINA RESULT:      -5.9      3.326      4.364
REMARK  2 active torsions:
REMARK  status: ('A' for Active; 'I' for Inactive)
REMARK    1  A    between atoms: N2_3  and  C7_12 
REMARK    2  A    between atoms: C1_6  and  C7_12 
ROOT
ATOM      1  O1  UNK     1      -0.783  36.339 236.485  1.00  0.00    -0.292 OA
ATOM      2  N1  UNK     1      -2.456  37.387 232.357  1.00  0.00    -0.353 N 
ATOM      3  C1  UNK     1       0.906  36.860 234.844  1.00  0.00     0.079 C 
ATOM      4  C2  UNK     1       1.067  36.584 233.332  1.00  0.00     0.020 C 
ATOM      5  C3  UNK     1       0.068  37.358 232.458  1.00  0.00     0.059 C 
ATOM      6  C4  UNK     1      -1.289  37.213 233.044  1.00  0.00     0.026 A 
ATOM      7  C5  UNK     1      -1.592  36.887 234.348  1.00  0.00     0.045 A 
ATOM      8  C6  UNK     1      -0.538  36.647 235.321  1.00  0.00     0.168 C 
ATOM      9  C8  UNK     1      -3.012  36.853 234.461  1.00  0.00     0.007 A 
ATOM     10  C9  UNK     1      -3.527  37.171 233.198  1.00  0.00     0.045 A 
ATOM     11  C10 UNK     1      -2.562  37.740 230.956  1.00  0.00     0.156 C 
ATOM     12  C11 UNK     1      -3.918  36.586 235.508  1.00  0.00     0.015 A 
ATOM     13  C12 UNK     1      -4.900  37.233 232.936  1.00  0.00     0.030 A 
ATOM     14  C15 UNK     1      -5.294  36.645 235.258  1.00  0.00     0.001 A 
ATOM     15  C16 UNK     1      -5.776  36.964 233.992  1.00  0.00     0.002 A 
ENDROOT
BRANCH   3  16
ATOM     16  C7  UNK     1       1.360  38.267 235.227  1.00  0.00     0.142 C 
BRANCH  16  17
ATOM     17  N2  UNK     1       2.081  38.281 236.491  1.00  0.00    -0.345 N 
ATOM     18  C13 UNK     1       1.749  38.990 237.604  1.00  0.00     0.079 A 
ATOM     19  N3  UNK     1       2.607  38.783 238.578  1.00  0.00    -0.355 N 
ATOM     20  C18 UNK     1       0.563  39.868 237.663  1.00  0.00     0.089 C 
ATOM     21  C17 UNK     1       3.524  37.905 238.057  1.00  0.00     0.106 A 
ATOM     22  H3  UNK     1       2.594  39.188 239.515  1.00  0.00     0.166 HD
ATOM     23  C14 UNK     1       3.215  37.578 236.757  1.00  0.00     0.109 A 
ENDBRANCH  16  17
ENDBRANCH   3  16
TORSDOF 2
ENDMDL
MODEL 8
REMARK VINA RESULT:      -5.9      2.920      6.087
REMARK  2 active torsions:
REMARK  status: ('A' for Active; 'I' for Inactive)
REMARK    1  A    between atoms: N2_3  and  C7_12 
REMARK    2  A    between atoms: C1_6  and  C7_12 
ROOT
ATOM      1  O1  UNK     1      -0.926  34.872 233.820  1.00  0.00    -0.292 OA
ATOM      2  N1  UNK     1       2.398  34.947 236.963  1.00  0.00    -0.353 N 
ATOM      3  C1  UNK     1      -0.822  36.920 235.091  1.00  0.00     0.079 C 
ATOM      4  C2  UNK     1      -0.514  37.263 236.566  1.00  0.00     0.020 C 
ATOM      5  C3  UNK     1       0.950  37.016 236.960  1.00  0.00     0.059 C 
ATOM      6  C4  UNK     1       1.357  35.676 236.466  1.00  0.00     0.026 A 
ATOM      7  C5  UNK     1       0.767  34.962 235.446  1.00  0.00     0.045 A 
ATOM      8  C6  UNK     1      -0.374  35.498 234.722  1.00  0.00     0.168 C 
ATOM      9  C8  UNK     1       1.479  33.733 235.319  1.00  0.00     0.007 A 
ATOM     10  C9  UNK     1       2.496  33.752 236.282  1.00  0.00     0.045 A 
ATOM     11  C10 UNK     1       3.271  35.357 238.044  1.00  0.00     0.156 C 
ATOM     12  C11 UNK     1       1.366  32.602 234.484  1.00  0.00     0.015 A 
ATOM     13  C12 UNK     1       3.400  32.697 236.446  1.00  0.00     0.030 A 
ATOM     14  C15 UNK     1       2.265  31.541 234.639  1.00  0.00     0.001 A 
ATOM     15  C16 UNK     1       3.265  31.589 235.605  1.00  0.00     0.002 A 
ENDROOT
BRANCH   3  16
ATOM     16  C7  UNK     1      -0.189  37.915 234.121  1.00  0.00     0.142 C 
BRANCH  16  17
ATOM     17  N2  UNK     1      -1.035  38.160 232.963  1.00  0.00    -0.345 N 
ATOM     18  C13 UNK     1      -0.802  37.744 231.688  1.00  0.00     0.079 A 
ATOM     19  N3  UNK     1      -1.760  38.131 230.875  1.00  0.00    -0.355 N 
ATOM     20  C18 UNK     1       0.390  36.958 231.313  1.00  0.00     0.089 C 
ATOM     21  C17 UNK     1      -2.637  38.824 231.671  1.00  0.00     0.106 A 
ATOM     22  H3  UNK     1      -1.834  37.955 229.873  1.00  0.00     0.166 HD
ATOM     23  C14 UNK     1      -2.205  38.854 232.977  1.00  0.00     0.109 A 
ENDBRANCH  16  17
ENDBRANCH   3  16
TORSDOF 2
ENDMDL
MODEL 9
REMARK VINA RESULT:      -5.9      1.831      2.969
REMARK  2 active torsions:
REMARK  status: ('A' for Active; 'I' for Inactive)
REMARK    1  A    between atoms: N2_3  and  C7_12 
REMARK    2  A    between atoms: C1_6  and  C7_12 
ROOT
ATOM      1  O1  UNK     1       2.037  34.330 235.710  1.00  0.00    -0.292 OA
ATOM      2  N1  UNK     1      -0.735  36.159 232.563  1.00  0.00    -0.353 N 
ATOM      3  C1  UNK     1       1.793  36.723 235.889  1.00  0.00     0.079 C 
ATOM      4  C2  UNK     1       1.662  37.876 234.867  1.00  0.00     0.020 C 
ATOM      5  C3  UNK     1       0.335  37.860 234.092  1.00  0.00     0.059 C 
ATOM      6  C4  UNK     1       0.084  36.479 233.607  1.00  0.00     0.026 A 
ATOM      7  C5  UNK     1       0.620  35.318 234.117  1.00  0.00     0.045 A 
ATOM      8  C6  UNK     1       1.533  35.351 235.248  1.00  0.00     0.168 C 
ATOM      9  C8  UNK     1       0.110  34.236 233.342  1.00  0.00     0.007 A 
ATOM     10  C9  UNK     1      -0.737  34.793 232.376  1.00  0.00     0.045 A 
ATOM     11  C10 UNK     1      -1.488  37.104 231.764  1.00  0.00     0.156 C 
ATOM     12  C11 UNK     1       0.278  32.835 233.361  1.00  0.00     0.015 A 
ATOM     13  C12 UNK     1      -1.419  34.017 231.432  1.00  0.00     0.030 A 
ATOM     14  C15 UNK     1      -0.399  32.049 232.422  1.00  0.00     0.001 A 
ATOM     15  C16 UNK     1      -1.235  32.633 231.474  1.00  0.00     0.002 A 
ENDROOT
BRANCH   3  16
ATOM     16  C7  UNK     1       0.864  36.903 237.087  1.00  0.00     0.142 C 
BRANCH  16  17
ATOM     17  N2  UNK     1       1.580  37.366 238.266  1.00  0.00    -0.345 N 
ATOM     18  C13 UNK     1       1.503  38.603 238.825  1.00  0.00     0.079 A 
ATOM     19  N3  UNK     1       2.276  38.701 239.884  1.00  0.00    -0.355 N 
ATOM     20  C18 UNK     1       0.644  39.673 238.277  1.00  0.00     0.089 C 
ATOM     21  C17 UNK     1       2.870  37.469 239.998  1.00  0.00     0.106 A 
ATOM     22  H3  UNK     1       2.407  39.513 240.487  1.00  0.00     0.166 HD
ATOM     23  C14 UNK     1       2.449  36.621 239.000  1.00  0.00     0.109 A 
ENDBRANCH  16  17
ENDBRANCH   3  16
TORSDOF 2
ENDMDL
