MODEL 1
REMARK VINA RESULT:      -6.2      0.000      0.000
REMARK  4 active torsions:
REMARK  status: ('A' for Active; 'I' for Inactive)
REMARK    1  A    between atoms: S1_1  and  C11_14 
REMARK    2  A    between atoms: N1_2  and  C10_13 
REMARK    3  A    between atoms: C4_7  and  C11_14 
REMARK    4  A    between atoms: C10_13  and  C15_18 
ROOT
ATOM      1  N1  UNK     1       0.286  36.536 234.364  1.00  0.00     0.094 N 
ATOM      2  N2  UNK     1       1.792  30.712 234.084  1.00  0.00    -0.365 N 
ATOM      3  C1  UNK     1       1.450  34.969 235.951  1.00  0.00     0.053 C 
ATOM      4  C2  UNK     1       1.030  35.255 234.443  1.00  0.00     0.235 C 
ATOM      5  C3  UNK     1       2.272  36.140 236.502  1.00  0.00     0.018 C 
ATOM      6  C4  UNK     1       1.518  37.460 236.322  1.00  0.00     0.024 C 
ATOM      7  C5  UNK     1       1.108  37.655 234.859  1.00  0.00     0.278 C 
ATOM      8  C6  UNK     1       0.226  34.055 233.810  1.00  0.00     0.077 C 
ATOM      9  C7  UNK     1       2.156  33.629 236.078  1.00  0.00    -0.039 A 
ATOM     10  C8  UNK     1       0.932  32.763 234.051  1.00  0.00    -0.028 A 
ATOM     11  C9  UNK     1       1.820  32.647 235.137  1.00  0.00     0.005 A 
ATOM     12  C12 UNK     1       2.353  31.372 235.156  1.00  0.00     0.043 A 
ATOM     13  C13 UNK     1       3.054  33.237 237.080  1.00  0.00     0.008 A 
ATOM     14  C14 UNK     1       0.926  31.548 233.408  1.00  0.00     0.096 A 
ATOM     15  C16 UNK     1       3.265  30.981 236.134  1.00  0.00     0.030 A 
ATOM     16  C17 UNK     1       3.600  31.944 237.099  1.00  0.00     0.003 A 
ATOM     17  H18 UNK     1       1.984  29.753 233.828  1.00  0.00     0.165 HD
ENDROOT
BRANCH   1  18
ATOM     18  C10 UNK     1      -0.171  36.847 233.007  1.00  0.00     0.272 C 
BRANCH  18  19
ATOM     19  C15 UNK     1       1.022  37.033 232.074  1.00  0.00     0.026 C 
ATOM     20  C18 UNK     1       0.824  36.287 230.764  1.00  0.00     0.007 C 
ENDBRANCH  18  19
ENDBRANCH   1  18
BRANCH   6  21
ATOM     21  C11 UNK     1       2.369  38.635 236.805  1.00  0.00     0.079 C 
BRANCH  21  22
ATOM     22  S1  UNK     1       2.001  39.002 238.539  1.00  0.00    -0.173 SA
ATOM     23  C19 UNK     1       0.316  39.624 238.330  1.00  0.00     0.089 C 
ENDBRANCH  21  22
ENDBRANCH   6  21
TORSDOF 4
ENDMDL
MODEL 2
REMARK VINA RESULT:      -6.1      2.354      5.721
REMARK  4 active torsions:
REMARK  status: ('A' for Active; 'I' for Inactive)
REMARK    1  A    between atoms: S1_1  and  C11_14 
REMARK    2  A    between atoms: N1_2  and  C10_13 
REMARK    3  A    between atoms: C4_7  and  C11_14 
REMARK    4  A    between atoms: C10_13  and  C15_18 
ROOT
ATOM      1  N1  UNK     1       1.646  33.162 235.397  1.00  0.00     0.094 N 
ATOM      2  N2  UNK     1       0.707  39.082 235.979  1.00  0.00    -0.365 N 
ATOM      3  C1  UNK     1       2.897  35.009 236.562  1.00  0.00     0.053 C 
ATOM      4  C2  UNK     1       1.506  34.531 235.950  1.00  0.00     0.235 C 
ATOM      5  C3  UNK     1       3.378  34.011 237.623  1.00  0.00     0.018 C 
ATOM      6  C4  UNK     1       3.422  32.593 237.049  1.00  0.00     0.024 C 
ATOM      7  C5  UNK     1       2.069  32.211 236.441  1.00  0.00     0.278 C 
ATOM      8  C6  UNK     1       0.940  35.552 234.890  1.00  0.00     0.077 C 
ATOM      9  C7  UNK     1       2.806  36.435 237.078  1.00  0.00    -0.039 A 
ATOM     10  C8  UNK     1       0.965  36.941 235.431  1.00  0.00    -0.028 A 
ATOM     11  C9  UNK     1       1.872  37.274 236.456  1.00  0.00     0.005 A 
ATOM     12  C12 UNK     1       1.710  38.604 236.794  1.00  0.00     0.043 A 
ATOM     13  C13 UNK     1       3.609  37.033 238.059  1.00  0.00     0.008 A 
ATOM     14  C14 UNK     1       0.251  38.080 235.145  1.00  0.00     0.096 A 
ATOM     15  C16 UNK     1       2.487  39.200 237.786  1.00  0.00     0.030 A 
ATOM     16  C17 UNK     1       3.444  38.383 238.408  1.00  0.00     0.003 A 
ATOM     17  H18 UNK     1       0.356  40.030 235.986  1.00  0.00     0.165 HD
ENDROOT
BRANCH   1  18
ATOM     18  C10 UNK     1       0.413  32.669 234.778  1.00  0.00     0.272 C 
BRANCH  18  19
ATOM     19  C15 UNK     1       0.658  32.316 233.313  1.00  0.00     0.026 C 
ATOM     20  C18 UNK     1       1.192  30.900 233.165  1.00  0.00     0.007 C 
ENDBRANCH  18  19
ENDBRANCH   1  18
BRANCH   6  21
ATOM     21  C11 UNK     1       3.832  31.590 238.127  1.00  0.00     0.079 C 
BRANCH  21  22
ATOM     22  S1  UNK     1       3.506  32.271 239.772  1.00  0.00    -0.173 SA
ATOM     23  C19 UNK     1       5.080  31.849 240.555  1.00  0.00     0.089 C 
ENDBRANCH  21  22
ENDBRANCH   6  21
TORSDOF 4
ENDMDL
MODEL 3
REMARK VINA RESULT:      -6.0      7.632     10.451
REMARK  4 active torsions:
REMARK  status: ('A' for Active; 'I' for Inactive)
REMARK    1  A    between atoms: S1_1  and  C11_14 
REMARK    2  A    between atoms: N1_2  and  C10_13 
REMARK    3  A    between atoms: C4_7  and  C11_14 
REMARK    4  A    between atoms: C10_13  and  C15_18 
ROOT
ATOM      1  N1  UNK     1      -2.938  42.967 226.874  1.00  0.00     0.094 N 
ATOM      2  N2  UNK     1      -4.967  37.829 229.272  1.00  0.00    -0.365 N 
ATOM      3  C1  UNK     1      -2.311  41.642 228.920  1.00  0.00     0.053 C 
ATOM      4  C2  UNK     1      -3.017  41.621 227.493  1.00  0.00     0.235 C 
ATOM      5  C3  UNK     1      -0.861  42.124 228.785  1.00  0.00     0.018 C 
ATOM      6  C4  UNK     1      -0.805  43.471 228.059  1.00  0.00     0.024 C 
ATOM      7  C5  UNK     1      -1.536  43.393 226.714  1.00  0.00     0.278 C 
ATOM      8  C6  UNK     1      -4.497  41.082 227.568  1.00  0.00     0.077 C 
ATOM      9  C7  UNK     1      -2.433  40.295 229.611  1.00  0.00    -0.039 A 
ATOM     10  C8  UNK     1      -4.553  39.805 228.337  1.00  0.00    -0.028 A 
ATOM     11  C9  UNK     1      -3.546  39.512 229.277  1.00  0.00     0.005 A 
ATOM     12  C12 UNK     1      -3.806  38.285 229.857  1.00  0.00     0.043 A 
ATOM     13  C13 UNK     1      -1.595  39.775 230.607  1.00  0.00     0.008 A 
ATOM     14  C14 UNK     1      -5.430  38.746 228.349  1.00  0.00     0.096 A 
ATOM     15  C16 UNK     1      -2.965  37.750 230.830  1.00  0.00     0.030 A 
ATOM     16  C17 UNK     1      -1.854  38.527 231.195  1.00  0.00     0.003 A 
ATOM     17  H18 UNK     1      -5.419  36.951 229.486  1.00  0.00     0.165 HD
ENDROOT
BRANCH   1  18
ATOM     18  C10 UNK     1      -3.605  43.035 225.571  1.00  0.00     0.272 C 
BRANCH  18  19
ATOM     19  C15 UNK     1      -2.755  42.354 224.502  1.00  0.00     0.026 C 
ATOM     20  C18 UNK     1      -3.571  41.356 223.696  1.00  0.00     0.007 C 
ENDBRANCH  18  19
ENDBRANCH   1  18
BRANCH   6  21
ATOM     21  C11 UNK     1       0.644  43.914 227.861  1.00  0.00     0.079 C 
BRANCH  21  22
ATOM     22  S1  UNK     1       1.752  42.484 227.933  1.00  0.00    -0.173 SA
ATOM     23  C19 UNK     1       3.010  43.174 229.032  1.00  0.00     0.089 C 
ENDBRANCH  21  22
ENDBRANCH   6  21
TORSDOF 4
ENDMDL
MODEL 4
REMARK VINA RESULT:      -5.9      2.482      5.185
REMARK  4 active torsions:
REMARK  status: ('A' for Active; 'I' for Inactive)
REMARK    1  A    between atoms: S1_1  and  C11_14 
REMARK    2  A    between atoms: N1_2  and  C10_13 
REMARK    3  A    between atoms: C4_7  and  C11_14 
REMARK    4  A    between atoms: C10_13  and  C15_18 
ROOT
ATOM      1  N1  UNK     1       1.879  37.216 236.792  1.00  0.00     0.094 N 
ATOM      2  N2  UNK     1      -0.403  36.549 231.259  1.00  0.00    -0.365 N 
ATOM      3  C1  UNK     1       0.970  35.245 235.518  1.00  0.00     0.053 C 
ATOM      4  C2  UNK     1       1.581  36.713 235.428  1.00  0.00     0.235 C 
ATOM      5  C3  UNK     1       1.932  34.318 236.270  1.00  0.00     0.018 C 
ATOM      6  C4  UNK     1       2.295  34.908 237.635  1.00  0.00     0.024 C 
ATOM      7  C5  UNK     1       2.837  36.333 237.482  1.00  0.00     0.278 C 
ATOM      8  C6  UNK     1       0.653  37.696 234.616  1.00  0.00     0.077 C 
ATOM      9  C7  UNK     1       0.590  34.726 234.141  1.00  0.00    -0.039 A 
ATOM     10  C8  UNK     1       0.247  37.084 233.318  1.00  0.00    -0.028 A 
ATOM     11  C9  UNK     1       0.244  35.683 233.179  1.00  0.00     0.005 A 
ATOM     12  C12 UNK     1      -0.161  35.353 231.899  1.00  0.00     0.043 A 
ATOM     13  C13 UNK     1       0.473  33.387 233.745  1.00  0.00     0.008 A 
ATOM     14  C14 UNK     1      -0.162  37.606 232.114  1.00  0.00     0.096 A 
ATOM     15  C16 UNK     1      -0.257  34.025 231.489  1.00  0.00     0.030 A 
ATOM     16  C17 UNK     1       0.066  33.048 232.444  1.00  0.00     0.003 A 
ATOM     17  H18 UNK     1      -0.716  36.642 230.302  1.00  0.00     0.165 HD
ENDROOT
BRANCH   1  18
ATOM     18  C10 UNK     1       2.408  38.582 236.793  1.00  0.00     0.272 C 
BRANCH  18  19
ATOM     19  C15 UNK     1       2.017  39.303 238.080  1.00  0.00     0.026 C 
ATOM     20  C18 UNK     1       0.506  39.412 238.218  1.00  0.00     0.007 C 
ENDBRANCH  18  19
ENDBRANCH   1  18
BRANCH   6  21
ATOM     21  C11 UNK     1       3.310  34.018 238.353  1.00  0.00     0.079 C 
BRANCH  21  22
ATOM     22  S1  UNK     1       2.683  32.324 238.471  1.00  0.00    -0.173 SA
ATOM     23  C19 UNK     1       4.073  31.469 237.692  1.00  0.00     0.089 C 
ENDBRANCH  21  22
ENDBRANCH   6  21
TORSDOF 4
ENDMDL
MODEL 5
REMARK VINA RESULT:      -5.9      2.601      4.753
REMARK  4 active torsions:
REMARK  status: ('A' for Active; 'I' for Inactive)
REMARK    1  A    between atoms: S1_1  and  C11_14 
REMARK    2  A    between atoms: N1_2  and  C10_13 
REMARK    3  A    between atoms: C4_7  and  C11_14 
REMARK    4  A    between atoms: C10_13  and  C15_18 
ROOT
ATOM      1  N1  UNK     1       0.670  37.183 236.970  1.00  0.00     0.094 N 
ATOM      2  N2  UNK     1       3.724  32.868 239.855  1.00  0.00    -0.365 N 
ATOM      3  C1  UNK     1       1.988  35.182 236.200  1.00  0.00     0.053 C 
ATOM      4  C2  UNK     1       1.208  35.870 237.405  1.00  0.00     0.235 C 
ATOM      5  C3  UNK     1       1.066  35.046 234.983  1.00  0.00     0.018 C 
ATOM      6  C4  UNK     1       0.454  36.399 234.615  1.00  0.00     0.024 C 
ATOM      7  C5  UNK     1      -0.246  37.025 235.826  1.00  0.00     0.278 C 
ATOM      8  C6  UNK     1       2.097  35.987 238.703  1.00  0.00     0.077 C 
ATOM      9  C7  UNK     1       2.610  33.864 236.633  1.00  0.00    -0.039 A 
ATOM     10  C8  UNK     1       2.746  34.681 239.015  1.00  0.00    -0.028 A 
ATOM     11  C9  UNK     1       2.951  33.741 237.986  1.00  0.00     0.005 A 
ATOM     12  C12 UNK     1       3.559  32.616 238.510  1.00  0.00     0.043 A 
ATOM     13  C13 UNK     1       2.952  32.781 235.812  1.00  0.00     0.008 A 
ATOM     14  C14 UNK     1       3.237  34.121 240.170  1.00  0.00     0.096 A 
ATOM     15  C16 UNK     1       3.881  31.524 237.707  1.00  0.00     0.030 A 
ATOM     16  C17 UNK     1       3.567  31.635 236.343  1.00  0.00     0.003 A 
ATOM     17  H18 UNK     1       4.145  32.231 240.517  1.00  0.00     0.165 HD
ENDROOT
BRANCH   1  18
ATOM     18  C10 UNK     1      -0.029  37.897 238.042  1.00  0.00     0.272 C 
BRANCH  18  19
ATOM     19  C15 UNK     1       0.415  39.356 238.086  1.00  0.00     0.026 C 
ATOM     20  C18 UNK     1       1.871  39.506 237.674  1.00  0.00     0.007 C 
ENDBRANCH  18  19
ENDBRANCH   1  18
BRANCH   6  21
ATOM     21  C11 UNK     1      -0.521  36.248 233.447  1.00  0.00     0.079 C 
BRANCH  21  22
ATOM     22  S1  UNK     1       0.197  35.191 232.166  1.00  0.00    -0.173 SA
ATOM     23  C19 UNK     1       0.905  36.483 231.117  1.00  0.00     0.089 C 
ENDBRANCH  21  22
ENDBRANCH   6  21
TORSDOF 4
ENDMDL
MODEL 6
REMARK VINA RESULT:      -5.9      2.633      5.669
REMARK  4 active torsions:
REMARK  status: ('A' for Active; 'I' for Inactive)
REMARK    1  A    between atoms: S1_1  and  C11_14 
REMARK    2  A    between atoms: N1_2  and  C10_13 
REMARK    3  A    between atoms: C4_7  and  C11_14 
REMARK    4  A    between atoms: C10_13  and  C15_18 
ROOT
ATOM      1  N1  UNK     1       0.180  34.090 234.748  1.00  0.00     0.094 N 
ATOM      2  N2  UNK     1       1.993  36.579 239.923  1.00  0.00    -0.365 N 
ATOM      3  C1  UNK     1       0.552  36.465 235.492  1.00  0.00     0.053 C 
ATOM      4  C2  UNK     1       0.876  34.929 235.755  1.00  0.00     0.235 C 
ATOM      5  C3  UNK     1       0.943  36.851 234.061  1.00  0.00     0.018 C 
ATOM      6  C4  UNK     1       0.285  35.910 233.049  1.00  0.00     0.024 C 
ATOM      7  C5  UNK     1       0.602  34.448 233.381  1.00  0.00     0.278 C 
ATOM      8  C6  UNK     1       0.540  34.493 237.233  1.00  0.00     0.077 C 
ATOM      9  C7  UNK     1       1.195  37.348 236.549  1.00  0.00    -0.039 A 
ATOM     10  C8  UNK     1       1.126  35.454 238.211  1.00  0.00    -0.028 A 
ATOM     11  C9  UNK     1       1.403  36.776 237.810  1.00  0.00     0.005 A 
ATOM     12  C12 UNK     1       1.940  37.473 238.875  1.00  0.00     0.043 A 
ATOM     13  C13 UNK     1       1.537  38.702 236.426  1.00  0.00     0.008 A 
ATOM     14  C14 UNK     1       1.498  35.352 239.530  1.00  0.00     0.096 A 
ATOM     15  C16 UNK     1       2.305  38.812 238.755  1.00  0.00     0.030 A 
ATOM     16  C17 UNK     1       2.086  39.412 237.505  1.00  0.00     0.003 A 
ATOM     17  H18 UNK     1       2.341  36.791 240.848  1.00  0.00     0.165 HD
ENDROOT
BRANCH   1  18
ATOM     18  C10 UNK     1       0.399  32.656 234.951  1.00  0.00     0.272 C 
BRANCH  18  19
ATOM     19  C15 UNK     1       1.599  32.181 234.136  1.00  0.00     0.026 C 
ATOM     20  C18 UNK     1       2.781  31.847 235.032  1.00  0.00     0.007 C 
ENDBRANCH  18  19
ENDBRANCH   1  18
BRANCH   6  21
ATOM     21  C11 UNK     1       0.734  36.250 231.628  1.00  0.00     0.079 C 
BRANCH  21  22
ATOM     22  S1  UNK     1      -0.386  37.467 230.893  1.00  0.00    -0.173 SA
ATOM     23  C19 UNK     1      -1.946  36.822 231.541  1.00  0.00     0.089 C 
ENDBRANCH  21  22
ENDBRANCH   6  21
TORSDOF 4
ENDMDL
MODEL 7
REMARK VINA RESULT:      -5.8      7.901     11.727
REMARK  4 active torsions:
REMARK  status: ('A' for Active; 'I' for Inactive)
REMARK    1  A    between atoms: S1_1  and  C11_14 
REMARK    2  A    between atoms: N1_2  and  C10_13 
REMARK    3  A    between atoms: C4_7  and  C11_14 
REMARK    4  A    between atoms: C10_13  and  C15_18 
ROOT
ATOM      1  N1  UNK     1      -1.719  40.223 229.598  1.00  0.00     0.094 N 
ATOM      2  N2  UNK     1      -7.001  40.953 226.799  1.00  0.00    -0.365 N 
ATOM      3  C1  UNK     1      -2.500  41.720 227.732  1.00  0.00     0.053 C 
ATOM      4  C2  UNK     1      -2.926  40.817 228.972  1.00  0.00     0.235 C 
ATOM      5  C3  UNK     1      -1.502  42.795 228.180  1.00  0.00     0.018 C 
ATOM      6  C4  UNK     1      -0.313  42.160 228.905  1.00  0.00     0.024 C 
ATOM      7  C5  UNK     1      -0.793  41.273 230.059  1.00  0.00     0.278 C 
ATOM      8  C6  UNK     1      -3.994  39.727 228.575  1.00  0.00     0.077 C 
ATOM      9  C7  UNK     1      -3.718  42.290 227.026  1.00  0.00    -0.039 A 
ATOM     10  C8  UNK     1      -5.115  40.342 227.808  1.00  0.00    -0.028 A 
ATOM     11  C9  UNK     1      -4.902  41.546 227.107  1.00  0.00     0.005 A 
ATOM     12  C12 UNK     1      -6.074  41.922 226.481  1.00  0.00     0.043 A 
ATOM     13  C13 UNK     1      -3.774  43.445 226.234  1.00  0.00     0.008 A 
ATOM     14  C14 UNK     1      -6.427  39.988 227.602  1.00  0.00     0.096 A 
ATOM     15  C16 UNK     1      -6.146  43.082 225.711  1.00  0.00     0.030 A 
ATOM     16  C17 UNK     1      -4.965  43.833 225.599  1.00  0.00     0.003 A 
ATOM     17  H18 UNK     1      -7.963  40.946 226.488  1.00  0.00     0.165 HD
ENDROOT
BRANCH   1  18
ATOM     18  C10 UNK     1      -2.037  39.343 230.725  1.00  0.00     0.272 C 
BRANCH  18  19
ATOM     19  C15 UNK     1      -1.006  38.222 230.831  1.00  0.00     0.026 C 
ATOM     20  C18 UNK     1      -0.961  37.639 232.235  1.00  0.00     0.007 C 
ENDBRANCH  18  19
ENDBRANCH   1  18
BRANCH   6  21
ATOM     21  C11 UNK     1       0.644  43.237 229.414  1.00  0.00     0.079 C 
BRANCH  21  22
ATOM     22  S1  UNK     1       2.238  43.111 228.564  1.00  0.00    -0.173 SA
ATOM     23  C19 UNK     1       3.187  44.245 229.604  1.00  0.00     0.089 C 
ENDBRANCH  21  22
ENDBRANCH   6  21
TORSDOF 4
ENDMDL
MODEL 8
REMARK VINA RESULT:      -5.7      1.837      4.623
REMARK  4 active torsions:
REMARK  status: ('A' for Active; 'I' for Inactive)
REMARK    1  A    between atoms: S1_1  and  C11_14 
REMARK    2  A    between atoms: N1_2  and  C10_13 
REMARK    3  A    between atoms: C4_7  and  C11_14 
REMARK    4  A    between atoms: C10_13  and  C15_18 
ROOT
ATOM      1  N1  UNK     1       1.161  35.314 236.356  1.00  0.00     0.094 N 
ATOM      2  N2  UNK     1      -0.551  33.254 230.962  1.00  0.00    -0.365 N 
ATOM      3  C1  UNK     1       1.179  36.297 234.039  1.00  0.00     0.053 C 
ATOM      4  C2  UNK     1       0.557  35.195 235.005  1.00  0.00     0.235 C 
ATOM      5  C3  UNK     1       0.976  37.696 234.633  1.00  0.00     0.018 C 
ATOM      6  C4  UNK     1       1.525  37.761 236.061  1.00  0.00     0.024 C 
ATOM      7  C5  UNK     1       0.919  36.651 236.926  1.00  0.00     0.278 C 
ATOM      8  C6  UNK     1       0.693  33.739 234.415  1.00  0.00     0.077 C 
ATOM      9  C7  UNK     1       0.631  36.159 232.628  1.00  0.00    -0.039 A 
ATOM     10  C8  UNK     1       0.221  33.699 233.001  1.00  0.00    -0.028 A 
ATOM     11  C9  UNK     1       0.225  34.879 232.231  1.00  0.00     0.005 A 
ATOM     12  C12 UNK     1      -0.254  34.599 230.965  1.00  0.00     0.043 A 
ATOM     13  C13 UNK     1       0.556  37.158 231.649  1.00  0.00     0.008 A 
ATOM     14  C14 UNK     1      -0.263  32.698 232.193  1.00  0.00     0.096 A 
ATOM     15  C16 UNK     1      -0.355  35.591 229.992  1.00  0.00     0.030 A 
ATOM     16  C17 UNK     1       0.066  36.878 230.363  1.00  0.00     0.003 A 
ATOM     17  H18 UNK     1      -0.924  32.743 230.173  1.00  0.00     0.165 HD
ENDROOT
BRANCH   1  18
ATOM     18  C10 UNK     1       0.666  34.302 237.293  1.00  0.00     0.272 C 
BRANCH  18  19
ATOM     19  C15 UNK     1       1.825  33.688 238.073  1.00  0.00     0.026 C 
ATOM     20  C18 UNK     1       3.122  33.754 237.283  1.00  0.00     0.007 C 
ENDBRANCH  18  19
ENDBRANCH   1  18
BRANCH   6  21
ATOM     21  C11 UNK     1       1.257  39.134 236.677  1.00  0.00     0.079 C 
BRANCH  21  22
ATOM     22  S1  UNK     1       1.575  39.093 238.458  1.00  0.00    -0.173 SA
ATOM     23  C19 UNK     1       3.382  39.055 238.408  1.00  0.00     0.089 C 
ENDBRANCH  21  22
ENDBRANCH   6  21
TORSDOF 4
ENDMDL
MODEL 9
REMARK VINA RESULT:      -5.6      2.223      4.335
REMARK  4 active torsions:
REMARK  status: ('A' for Active; 'I' for Inactive)
REMARK    1  A    between atoms: S1_1  and  C11_14 
REMARK    2  A    between atoms: N1_2  and  C10_13 
REMARK    3  A    between atoms: C4_7  and  C11_14 
REMARK    4  A    between atoms: C10_13  and  C15_18 
ROOT
ATOM      1  N1  UNK     1       1.312  37.423 236.361  1.00  0.00     0.094 N 
ATOM      2  N2  UNK     1       3.027  31.653 236.191  1.00  0.00    -0.365 N 
ATOM      3  C1  UNK     1       0.991  35.568 234.691  1.00  0.00     0.053 C 
ATOM      4  C2  UNK     1       1.325  35.948 236.201  1.00  0.00     0.235 C 
ATOM      5  C3  UNK     1      -0.355  36.175 234.279  1.00  0.00     0.018 C 
ATOM      6  C4  UNK     1      -0.372  37.682 234.543  1.00  0.00     0.024 C 
ATOM      7  C5  UNK     1      -0.004  37.982 236.000  1.00  0.00     0.278 C 
ATOM      8  C6  UNK     1       2.678  35.304 236.693  1.00  0.00     0.077 C 
ATOM      9  C7  UNK     1       1.063  34.065 234.477  1.00  0.00    -0.039 A 
ATOM     10  C8  UNK     1       2.715  33.849 236.369  1.00  0.00    -0.028 A 
ATOM     11  C9  UNK     1       1.928  33.349 235.313  1.00  0.00     0.005 A 
ATOM     12  C12 UNK     1       2.124  31.985 235.205  1.00  0.00     0.043 A 
ATOM     13  C13 UNK     1       0.415  33.321 233.482  1.00  0.00     0.008 A 
ATOM     14  C14 UNK     1       3.394  32.778 236.902  1.00  0.00     0.096 A 
ATOM     15  C16 UNK     1       1.466  31.233 234.234  1.00  0.00     0.030 A 
ATOM     16  C17 UNK     1       0.609  31.935 233.371  1.00  0.00     0.003 A 
ATOM     17  H18 UNK     1       3.374  30.721 236.370  1.00  0.00     0.165 HD
ENDROOT
BRANCH   1  18
ATOM     18  C10 UNK     1       1.652  37.852 237.720  1.00  0.00     0.272 C 
BRANCH  18  19
ATOM     19  C15 UNK     1       2.707  38.954 237.681  1.00  0.00     0.026 C 
ATOM     20  C18 UNK     1       3.582  38.929 238.925  1.00  0.00     0.007 C 
ENDBRANCH  18  19
ENDBRANCH   1  18
BRANCH   6  21
ATOM     21  C11 UNK     1      -1.739  38.273 234.199  1.00  0.00     0.079 C 
BRANCH  21  22
ATOM     22  S1  UNK     1      -1.770  38.816 232.472  1.00  0.00    -0.173 SA
ATOM     23  C19 UNK     1      -3.561  38.813 232.223  1.00  0.00     0.089 C 
ENDBRANCH  21  22
ENDBRANCH   6  21
TORSDOF 4
ENDMDL
