MODEL 1
REMARK VINA RESULT:      -5.4      0.000      0.000
REMARK  8 active torsions:
REMARK  status: ('A' for Active; 'I' for Inactive)
REMARK    1  A    between atoms: S1_1  and  N1_6 
REMARK    2  A    between atoms: S1_1  and  C5_11 
REMARK    3  A    between atoms: O3_4  and  C13_19 
REMARK    4  A    between atoms: N1_6  and  C1_7 
REMARK    5  A    between atoms: N1_6  and  C2_8 
REMARK    6  A    between atoms: C1_7  and  C3_9 
REMARK    7  A    between atoms: C2_8  and  C4_10 
REMARK    8  A    between atoms: C12_18  and  C13_19 
ROOT
ATOM      1  C5  UNK     1      -2.279  41.454 228.871  1.00  0.00     0.079 A 
ATOM      2  C8  UNK     1      -1.277  41.744 229.778  1.00  0.00     0.026 A 
ATOM      3  C9  UNK     1      -2.416  42.156 227.689  1.00  0.00     0.026 A 
ATOM      4  C10 UNK     1      -0.380  42.773 229.493  1.00  0.00     0.020 A 
ATOM      5  C11 UNK     1      -1.519  43.185 227.402  1.00  0.00     0.020 A 
ATOM      6  C12 UNK     1      -0.501  43.495 228.305  1.00  0.00     0.037 A 
ENDROOT
BRANCH   1   7
ATOM      7  S1  UNK     1      -3.417  40.146 229.234  1.00  0.00     0.260 S 
ATOM      8  O1  UNK     1      -4.477  40.712 230.049  1.00  0.00    -0.200 OA
ATOM      9  O2  UNK     1      -3.751  39.505 227.974  1.00  0.00    -0.200 OA
BRANCH   7  10
ATOM     10  N1  UNK     1      -2.467  39.073 230.192  1.00  0.00    -0.307 N 
BRANCH  10  11
ATOM     11  C1  UNK     1      -2.919  38.799 231.580  1.00  0.00     0.135 C 
BRANCH  11  12
ATOM     12  C3  UNK     1      -1.836  39.197 232.578  1.00  0.00     0.016 C 
ATOM     13  C6  UNK     1      -1.464  38.034 233.485  1.00  0.00     0.006 C 
ENDBRANCH  11  12
ENDBRANCH  10  11
BRANCH  10  14
ATOM     14  C2  UNK     1      -1.920  37.859 229.535  1.00  0.00     0.135 C 
BRANCH  14  15
ATOM     15  C4  UNK     1      -0.397  37.937 229.462  1.00  0.00     0.016 C 
ATOM     16  C7  UNK     1       0.255  36.865 230.322  1.00  0.00     0.006 C 
ENDBRANCH  14  15
ENDBRANCH  10  14
ENDBRANCH   7  10
ENDBRANCH   1   7
BRANCH   6  17
ATOM     17  C13 UNK     1       0.434  44.567 228.007  1.00  0.00     0.176 C 
ATOM     18  O4  UNK     1       0.304  45.746 228.351  1.00  0.00    -0.646 OA
BRANCH  17  19
ATOM     19  O3  UNK     1       1.506  44.138 227.287  1.00  0.00    -0.773 OA
ATOM     20  H19 UNK     1       1.879  43.305 227.649  1.00  0.00     0.167 HD
ENDBRANCH  17  19
ENDBRANCH   6  17
TORSDOF 8
ENDMDL
MODEL 2
REMARK VINA RESULT:      -5.3      7.100      9.251
REMARK  8 active torsions:
REMARK  status: ('A' for Active; 'I' for Inactive)
REMARK    1  A    between atoms: S1_1  and  N1_6 
REMARK    2  A    between atoms: S1_1  and  C5_11 
REMARK    3  A    between atoms: O3_4  and  C13_19 
REMARK    4  A    between atoms: N1_6  and  C1_7 
REMARK    5  A    between atoms: N1_6  and  C2_8 
REMARK    6  A    between atoms: C1_7  and  C3_9 
REMARK    7  A    between atoms: C2_8  and  C4_10 
REMARK    8  A    between atoms: C12_18  and  C13_19 
ROOT
ATOM      1  C5  UNK     1       0.673  37.681 235.776  1.00  0.00     0.079 A 
ATOM      2  C8  UNK     1       1.553  38.012 234.763  1.00  0.00     0.026 A 
ATOM      3  C9  UNK     1      -0.284  36.697 235.618  1.00  0.00     0.026 A 
ATOM      4  C10 UNK     1       1.473  37.334 233.547  1.00  0.00     0.020 A 
ATOM      5  C11 UNK     1      -0.364  36.017 234.402  1.00  0.00     0.020 A 
ATOM      6  C12 UNK     1       0.514  36.336 233.366  1.00  0.00     0.037 A 
ENDROOT
BRANCH   1   7
ATOM      7  S1  UNK     1       0.775  38.543 237.321  1.00  0.00     0.260 S 
ATOM      8  O1  UNK     1       1.153  39.913 237.025  1.00  0.00    -0.200 OA
ATOM      9  O2  UNK     1      -0.459  38.283 238.041  1.00  0.00    -0.200 OA
BRANCH   7  10
ATOM     10  N1  UNK     1       2.082  37.744 238.113  1.00  0.00    -0.307 N 
BRANCH  10  11
ATOM     11  C1  UNK     1       2.066  36.260 238.153  1.00  0.00     0.135 C 
BRANCH  11  12
ATOM     12  C3  UNK     1       3.268  35.696 237.401  1.00  0.00     0.016 C 
ATOM     13  C6  UNK     1       2.872  34.518 236.526  1.00  0.00     0.006 C 
ENDBRANCH  11  12
ENDBRANCH  10  11
BRANCH  10  14
ATOM     14  C2  UNK     1       3.451  38.279 237.901  1.00  0.00     0.135 C 
BRANCH  14  15
ATOM     15  C4  UNK     1       3.910  39.062 239.128  1.00  0.00     0.016 C 
ATOM     16  C7  UNK     1       4.516  38.142 240.178  1.00  0.00     0.006 C 
ENDBRANCH  14  15
ENDBRANCH  10  14
ENDBRANCH   7  10
ENDBRANCH   1   7
BRANCH   6  17
ATOM     17  C13 UNK     1       0.431  35.629 232.099  1.00  0.00     0.176 C 
ATOM     18  O4  UNK     1      -0.070  34.512 231.933  1.00  0.00    -0.646 OA
BRANCH  17  19
ATOM     19  O3  UNK     1       0.977  36.336 231.072  1.00  0.00    -0.773 OA
ATOM     20  H19 UNK     1       1.556  35.776 230.510  1.00  0.00     0.167 HD
ENDBRANCH  17  19
ENDBRANCH   6  17
TORSDOF 8
ENDMDL
MODEL 3
REMARK VINA RESULT:      -5.3      7.504     10.540
REMARK  8 active torsions:
REMARK  status: ('A' for Active; 'I' for Inactive)
REMARK    1  A    between atoms: S1_1  and  N1_6 
REMARK    2  A    between atoms: S1_1  and  C5_11 
REMARK    3  A    between atoms: O3_4  and  C13_19 
REMARK    4  A    between atoms: N1_6  and  C1_7 
REMARK    5  A    between atoms: N1_6  and  C2_8 
REMARK    6  A    between atoms: C1_7  and  C3_9 
REMARK    7  A    between atoms: C2_8  and  C4_10 
REMARK    8  A    between atoms: C12_18  and  C13_19 
ROOT
ATOM      1  C5  UNK     1       0.697  35.315 236.516  1.00  0.00     0.079 A 
ATOM      2  C8  UNK     1       1.932  35.248 237.133  1.00  0.00     0.026 A 
ATOM      3  C9  UNK     1       0.279  34.352 235.616  1.00  0.00     0.026 A 
ATOM      4  C10 UNK     1       2.780  34.180 236.840  1.00  0.00     0.020 A 
ATOM      5  C11 UNK     1       1.126  33.283 235.323  1.00  0.00     0.020 A 
ATOM      6  C12 UNK     1       2.377  33.198 235.935  1.00  0.00     0.037 A 
ENDROOT
BRANCH   1   7
ATOM      7  S1  UNK     1      -0.381  36.671 236.888  1.00  0.00     0.260 S 
ATOM      8  O1  UNK     1      -1.544  36.544 236.030  1.00  0.00    -0.200 OA
ATOM      9  O2  UNK     1      -0.557  36.698 238.329  1.00  0.00    -0.200 OA
BRANCH   7  10
ATOM     10  N1  UNK     1       0.549  38.037 236.397  1.00  0.00    -0.307 N 
BRANCH  10  11
ATOM     11  C1  UNK     1       0.508  38.424 234.963  1.00  0.00     0.135 C 
BRANCH  11  12
ATOM     12  C3  UNK     1       1.612  37.709 234.189  1.00  0.00     0.016 C 
ATOM     13  C6  UNK     1       1.055  36.976 232.979  1.00  0.00     0.006 C 
ENDBRANCH  11  12
ENDBRANCH  10  11
BRANCH  10  14
ATOM     14  C2  UNK     1       0.566  39.221 237.291  1.00  0.00     0.135 C 
BRANCH  14  15
ATOM     15  C4  UNK     1       1.704  39.105 238.303  1.00  0.00     0.016 C 
ATOM     16  C7  UNK     1       3.013  38.732 237.624  1.00  0.00     0.006 C 
ENDBRANCH  14  15
ENDBRANCH  10  14
ENDBRANCH   7  10
ENDBRANCH   1   7
BRANCH   6  17
ATOM     17  C13 UNK     1       3.261  32.084 235.630  1.00  0.00     0.176 C 
ATOM     18  O4  UNK     1       4.001  31.515 236.439  1.00  0.00    -0.646 OA
BRANCH  17  19
ATOM     19  O3  UNK     1       3.196  31.712 234.323  1.00  0.00    -0.773 OA
ATOM     20  H19 UNK     1       3.394  30.757 234.205  1.00  0.00     0.167 HD
ENDBRANCH  17  19
ENDBRANCH   6  17
TORSDOF 8
ENDMDL
MODEL 4
REMARK VINA RESULT:      -5.2      6.693      8.799
REMARK  8 active torsions:
REMARK  status: ('A' for Active; 'I' for Inactive)
REMARK    1  A    between atoms: S1_1  and  N1_6 
REMARK    2  A    between atoms: S1_1  and  C5_11 
REMARK    3  A    between atoms: O3_4  and  C13_19 
REMARK    4  A    between atoms: N1_6  and  C1_7 
REMARK    5  A    between atoms: N1_6  and  C2_8 
REMARK    6  A    between atoms: C1_7  and  C3_9 
REMARK    7  A    between atoms: C2_8  and  C4_10 
REMARK    8  A    between atoms: C12_18  and  C13_19 
ROOT
ATOM      1  C5  UNK     1       0.944  36.686 234.288  1.00  0.00     0.079 A 
ATOM      2  C8  UNK     1       1.278  37.463 233.194  1.00  0.00     0.026 A 
ATOM      3  C9  UNK     1       0.422  35.415 234.145  1.00  0.00     0.026 A 
ATOM      4  C10 UNK     1       1.082  36.950 231.912  1.00  0.00     0.020 A 
ATOM      5  C11 UNK     1       0.227  34.900 232.863  1.00  0.00     0.020 A 
ATOM      6  C12 UNK     1       0.556  35.668 231.746  1.00  0.00     0.037 A 
ENDROOT
BRANCH   1   7
ATOM      7  S1  UNK     1       1.193  37.338 235.916  1.00  0.00     0.260 S 
ATOM      8  O1  UNK     1       1.526  38.744 235.770  1.00  0.00    -0.200 OA
ATOM      9  O2  UNK     1       0.041  36.957 236.713  1.00  0.00    -0.200 OA
BRANCH   7  10
ATOM     10  N1  UNK     1       2.581  36.473 236.461  1.00  0.00    -0.307 N 
BRANCH  10  11
ATOM     11  C1  UNK     1       3.754  37.261 236.918  1.00  0.00     0.135 C 
BRANCH  11  12
ATOM     12  C3  UNK     1       3.675  37.504 238.422  1.00  0.00     0.016 C 
ATOM     13  C6  UNK     1       3.576  38.988 238.739  1.00  0.00     0.006 C 
ENDBRANCH  11  12
ENDBRANCH  10  11
BRANCH  10  14
ATOM     14  C2  UNK     1       2.361  35.268 237.299  1.00  0.00     0.135 C 
BRANCH  14  15
ATOM     15  C4  UNK     1       2.929  34.030 236.608  1.00  0.00     0.016 C 
ATOM     16  C7  UNK     1       3.330  32.966 237.619  1.00  0.00     0.006 C 
ENDBRANCH  14  15
ENDBRANCH  10  14
ENDBRANCH   7  10
ENDBRANCH   1   7
BRANCH   6  17
ATOM     17  C13 UNK     1       0.353  35.133 230.410  1.00  0.00     0.176 C 
ATOM     18  O4  UNK     1      -0.368  34.172 230.126  1.00  0.00    -0.646 OA
BRANCH  17  19
ATOM     19  O3  UNK     1       1.056  35.814 229.465  1.00  0.00    -0.773 OA
ATOM     20  H19 UNK     1       0.925  35.435 228.569  1.00  0.00     0.167 HD
ENDBRANCH  17  19
ENDBRANCH   6  17
TORSDOF 8
ENDMDL
MODEL 5
REMARK VINA RESULT:      -5.2      6.185      8.554
REMARK  8 active torsions:
REMARK  status: ('A' for Active; 'I' for Inactive)
REMARK    1  A    between atoms: S1_1  and  N1_6 
REMARK    2  A    between atoms: S1_1  and  C5_11 
REMARK    3  A    between atoms: O3_4  and  C13_19 
REMARK    4  A    between atoms: N1_6  and  C1_7 
REMARK    5  A    between atoms: N1_6  and  C2_8 
REMARK    6  A    between atoms: C1_7  and  C3_9 
REMARK    7  A    between atoms: C2_8  and  C4_10 
REMARK    8  A    between atoms: C12_18  and  C13_19 
ROOT
ATOM      1  C5  UNK     1       0.582  38.122 235.333  1.00  0.00     0.079 A 
ATOM      2  C8  UNK     1       1.656  37.757 234.543  1.00  0.00     0.026 A 
ATOM      3  C9  UNK     1      -0.718  38.071 234.865  1.00  0.00     0.026 A 
ATOM      4  C10 UNK     1       1.422  37.324 233.238  1.00  0.00     0.020 A 
ATOM      5  C11 UNK     1      -0.952  37.637 233.560  1.00  0.00     0.020 A 
ATOM      6  C12 UNK     1       0.118  37.265 232.746  1.00  0.00     0.037 A 
ENDROOT
BRANCH   1   7
ATOM      7  S1  UNK     1       0.878  38.671 236.991  1.00  0.00     0.260 S 
ATOM      8  O1  UNK     1       1.086  40.107 236.937  1.00  0.00    -0.200 OA
ATOM      9  O2  UNK     1      -0.187  38.135 237.819  1.00  0.00    -0.200 OA
BRANCH   7  10
ATOM     10  N1  UNK     1       2.364  37.890 237.387  1.00  0.00    -0.307 N 
BRANCH  10  11
ATOM     11  C1  UNK     1       3.404  38.691 238.081  1.00  0.00     0.135 C 
BRANCH  11  12
ATOM     12  C3  UNK     1       3.206  38.621 239.593  1.00  0.00     0.016 C 
ATOM     13  C6  UNK     1       4.464  38.133 240.294  1.00  0.00     0.006 C 
ENDBRANCH  11  12
ENDBRANCH  10  11
BRANCH  10  14
ATOM     14  C2  UNK     1       2.299  36.499 237.900  1.00  0.00     0.135 C 
BRANCH  14  15
ATOM     15  C4  UNK     1       3.312  35.618 237.173  1.00  0.00     0.016 C 
ATOM     16  C7  UNK     1       2.627  34.472 236.444  1.00  0.00     0.006 C 
ENDBRANCH  14  15
ENDBRANCH  10  14
ENDBRANCH   7  10
ENDBRANCH   1   7
BRANCH   6  17
ATOM     17  C13 UNK     1      -0.125  36.813 231.386  1.00  0.00     0.176 C 
ATOM     18  O4  UNK     1      -1.231  36.749 230.839  1.00  0.00    -0.646 OA
BRANCH  17  19
ATOM     19  O3  UNK     1       1.019  36.453 230.744  1.00  0.00    -0.773 OA
ATOM     20  H19 UNK     1       1.391  37.193 230.217  1.00  0.00     0.167 HD
ENDBRANCH  17  19
ENDBRANCH   6  17
TORSDOF 8
ENDMDL
MODEL 6
REMARK VINA RESULT:      -5.1      6.457      9.007
REMARK  8 active torsions:
REMARK  status: ('A' for Active; 'I' for Inactive)
REMARK    1  A    between atoms: S1_1  and  N1_6 
REMARK    2  A    between atoms: S1_1  and  C5_11 
REMARK    3  A    between atoms: O3_4  and  C13_19 
REMARK    4  A    between atoms: N1_6  and  C1_7 
REMARK    5  A    between atoms: N1_6  and  C2_8 
REMARK    6  A    between atoms: C1_7  and  C3_9 
REMARK    7  A    between atoms: C2_8  and  C4_10 
REMARK    8  A    between atoms: C12_18  and  C13_19 
ROOT
ATOM      1  C5  UNK     1       1.101  35.601 234.959  1.00  0.00     0.079 A 
ATOM      2  C8  UNK     1       0.602  34.681 234.057  1.00  0.00     0.026 A 
ATOM      3  C9  UNK     1       1.402  36.897 234.587  1.00  0.00     0.026 A 
ATOM      4  C10 UNK     1       0.395  35.072 232.734  1.00  0.00     0.020 A 
ATOM      5  C11 UNK     1       1.194  37.289 233.264  1.00  0.00     0.020 A 
ATOM      6  C12 UNK     1       0.692  36.376 232.337  1.00  0.00     0.037 A 
ENDROOT
BRANCH   1   7
ATOM      7  S1  UNK     1       1.364  35.105 236.639  1.00  0.00     0.260 S 
ATOM      8  O1  UNK     1       0.082  34.668 237.164  1.00  0.00    -0.200 OA
ATOM      9  O2  UNK     1       2.488  34.185 236.646  1.00  0.00    -0.200 OA
BRANCH   7  10
ATOM     10  N1  UNK     1       1.824  36.582 237.401  1.00  0.00    -0.307 N 
BRANCH  10  11
ATOM     11  C1  UNK     1       0.882  37.177 238.384  1.00  0.00     0.135 C 
BRANCH  11  12
ATOM     12  C3  UNK     1       0.092  38.313 237.740  1.00  0.00     0.016 C 
ATOM     13  C6  UNK     1       0.397  39.646 238.405  1.00  0.00     0.006 C 
ENDBRANCH  11  12
ENDBRANCH  10  11
BRANCH  10  14
ATOM     14  C2  UNK     1       3.238  36.730 237.827  1.00  0.00     0.135 C 
BRANCH  14  15
ATOM     15  C4  UNK     1       3.310  37.159 239.290  1.00  0.00     0.016 C 
ATOM     16  C7  UNK     1       4.093  38.453 239.451  1.00  0.00     0.006 C 
ENDBRANCH  14  15
ENDBRANCH  10  14
ENDBRANCH   7  10
ENDBRANCH   1   7
BRANCH   6  17
ATOM     17  C13 UNK     1       0.475  36.784 230.959  1.00  0.00     0.176 C 
ATOM     18  O4  UNK     1       1.148  36.417 229.989  1.00  0.00    -0.646 OA
BRANCH  17  19
ATOM     19  O3  UNK     1      -0.575  37.638 230.827  1.00  0.00    -0.773 OA
ATOM     20  H19 UNK     1      -1.061  37.494 229.987  1.00  0.00     0.167 HD
ENDBRANCH  17  19
ENDBRANCH   6  17
TORSDOF 8
ENDMDL
MODEL 7
REMARK VINA RESULT:      -5.1      2.962      4.098
REMARK  8 active torsions:
REMARK  status: ('A' for Active; 'I' for Inactive)
REMARK    1  A    between atoms: S1_1  and  N1_6 
REMARK    2  A    between atoms: S1_1  and  C5_11 
REMARK    3  A    between atoms: O3_4  and  C13_19 
REMARK    4  A    between atoms: N1_6  and  C1_7 
REMARK    5  A    between atoms: N1_6  and  C2_8 
REMARK    6  A    between atoms: C1_7  and  C3_9 
REMARK    7  A    between atoms: C2_8  and  C4_10 
REMARK    8  A    between atoms: C12_18  and  C13_19 
ROOT
ATOM      1  C5  UNK     1       0.568  43.270 228.482  1.00  0.00     0.079 A 
ATOM      2  C8  UNK     1       1.682  42.642 227.961  1.00  0.00     0.026 A 
ATOM      3  C9  UNK     1       0.641  44.063 229.612  1.00  0.00     0.026 A 
ATOM      4  C10 UNK     1       2.915  42.812 228.591  1.00  0.00     0.020 A 
ATOM      5  C11 UNK     1       1.873  44.235 230.242  1.00  0.00     0.020 A 
ATOM      6  C12 UNK     1       3.011  43.609 229.732  1.00  0.00     0.037 A 
ENDROOT
BRANCH   1   7
ATOM      7  S1  UNK     1      -0.998  43.053 227.682  1.00  0.00     0.260 S 
ATOM      8  O1  UNK     1      -1.635  44.357 227.623  1.00  0.00    -0.200 OA
ATOM      9  O2  UNK     1      -0.755  42.321 226.452  1.00  0.00    -0.200 OA
BRANCH   7  10
ATOM     10  N1  UNK     1      -1.853  42.047 228.792  1.00  0.00    -0.307 N 
BRANCH  10  11
ATOM     11  C1  UNK     1      -2.968  41.223 228.262  1.00  0.00     0.135 C 
BRANCH  11  12
ATOM     12  C3  UNK     1      -3.970  40.911 229.370  1.00  0.00     0.016 C 
ATOM     13  C6  UNK     1      -4.464  39.476 229.283  1.00  0.00     0.006 C 
ENDBRANCH  11  12
ENDBRANCH  10  11
BRANCH  10  14
ATOM     14  C2  UNK     1      -1.063  41.320 229.817  1.00  0.00     0.135 C 
BRANCH  14  15
ATOM     15  C4  UNK     1      -0.636  39.954 229.287  1.00  0.00     0.016 C 
ATOM     16  C7  UNK     1      -0.930  38.852 230.293  1.00  0.00     0.006 C 
ENDBRANCH  14  15
ENDBRANCH  10  14
ENDBRANCH   7  10
ENDBRANCH   1   7
BRANCH   6  17
ATOM     17  C13 UNK     1       4.295  43.787 230.388  1.00  0.00     0.176 C 
ATOM     18  O4  UNK     1       4.494  44.465 231.402  1.00  0.00    -0.646 OA
BRANCH  17  19
ATOM     19  O3  UNK     1       5.298  43.114 229.761  1.00  0.00    -0.773 OA
ATOM     20  H19 UNK     1       5.305  43.286 228.795  1.00  0.00     0.167 HD
ENDBRANCH  17  19
ENDBRANCH   6  17
TORSDOF 8
ENDMDL
MODEL 8
REMARK VINA RESULT:      -4.9      6.541      8.406
REMARK  8 active torsions:
REMARK  status: ('A' for Active; 'I' for Inactive)
REMARK    1  A    between atoms: S1_1  and  N1_6 
REMARK    2  A    between atoms: S1_1  and  C5_11 
REMARK    3  A    between atoms: O3_4  and  C13_19 
REMARK    4  A    between atoms: N1_6  and  C1_7 
REMARK    5  A    between atoms: N1_6  and  C2_8 
REMARK    6  A    between atoms: C1_7  and  C3_9 
REMARK    7  A    between atoms: C2_8  and  C4_10 
REMARK    8  A    between atoms: C12_18  and  C13_19 
ROOT
ATOM      1  C5  UNK     1       0.977  36.096 234.296  1.00  0.00     0.079 A 
ATOM      2  C8  UNK     1       1.225  37.135 233.420  1.00  0.00     0.026 A 
ATOM      3  C9  UNK     1       0.491  34.877 233.862  1.00  0.00     0.026 A 
ATOM      4  C10 UNK     1       0.978  36.950 232.060  1.00  0.00     0.020 A 
ATOM      5  C11 UNK     1       0.244  34.691 232.501  1.00  0.00     0.020 A 
ATOM      6  C12 UNK     1       0.487  35.728 231.600  1.00  0.00     0.037 A 
ENDROOT
BRANCH   1   7
ATOM      7  S1  UNK     1       1.291  36.331 236.024  1.00  0.00     0.260 S 
ATOM      8  O1  UNK     1       1.098  35.047 236.675  1.00  0.00    -0.200 OA
ATOM      9  O2  UNK     1       2.572  37.004 236.141  1.00  0.00    -0.200 OA
BRANCH   7  10
ATOM     10  N1  UNK     1       0.029  37.408 236.493  1.00  0.00    -0.307 N 
BRANCH  10  11
ATOM     11  C1  UNK     1      -0.950  36.931 237.503  1.00  0.00     0.135 C 
BRANCH  11  12
ATOM     12  C3  UNK     1      -2.032  36.088 236.834  1.00  0.00     0.016 C 
ATOM     13  C6  UNK     1      -2.427  36.664 235.483  1.00  0.00     0.006 C 
ENDBRANCH  11  12
ENDBRANCH  10  11
BRANCH  10  14
ATOM     14  C2  UNK     1       0.377  38.838 236.689  1.00  0.00     0.135 C 
BRANCH  14  15
ATOM     15  C4  UNK     1       0.392  39.181 238.177  1.00  0.00     0.016 C 
ATOM     16  C7  UNK     1       1.795  39.083 238.755  1.00  0.00     0.006 C 
ENDBRANCH  14  15
ENDBRANCH  10  14
ENDBRANCH   7  10
ENDBRANCH   1   7
BRANCH   6  17
ATOM     17  C13 UNK     1       0.230  35.535 230.182  1.00  0.00     0.176 C 
ATOM     18  O4  UNK     1      -0.843  35.168 229.692  1.00  0.00    -0.646 OA
BRANCH  17  19
ATOM     19  O3  UNK     1       1.320  35.806 229.415  1.00  0.00    -0.773 OA
ATOM     20  H19 UNK     1       1.824  36.577 229.754  1.00  0.00     0.167 HD
ENDBRANCH  17  19
ENDBRANCH   6  17
TORSDOF 8
ENDMDL
MODEL 9
REMARK VINA RESULT:      -4.9      2.485      3.533
REMARK  8 active torsions:
REMARK  status: ('A' for Active; 'I' for Inactive)
REMARK    1  A    between atoms: S1_1  and  N1_6 
REMARK    2  A    between atoms: S1_1  and  C5_11 
REMARK    3  A    between atoms: O3_4  and  C13_19 
REMARK    4  A    between atoms: N1_6  and  C1_7 
REMARK    5  A    between atoms: N1_6  and  C2_8 
REMARK    6  A    between atoms: C1_7  and  C3_9 
REMARK    7  A    between atoms: C2_8  and  C4_10 
REMARK    8  A    between atoms: C12_18  and  C13_19 
ROOT
ATOM      1  C5  UNK     1      -0.655  41.254 229.386  1.00  0.00     0.079 A 
ATOM      2  C8  UNK     1       0.243  41.168 228.339  1.00  0.00     0.026 A 
ATOM      3  C9  UNK     1      -0.999  42.467 229.952  1.00  0.00     0.026 A 
ATOM      4  C10 UNK     1       0.817  42.337 227.838  1.00  0.00     0.020 A 
ATOM      5  C11 UNK     1      -0.426  43.637 229.452  1.00  0.00     0.020 A 
ATOM      6  C12 UNK     1       0.483  43.571 228.395  1.00  0.00     0.037 A 
ENDROOT
BRANCH   1   7
ATOM      7  S1  UNK     1      -1.384  39.770 230.021  1.00  0.00     0.260 S 
ATOM      8  O1  UNK     1      -0.522  38.668 229.635  1.00  0.00    -0.200 OA
ATOM      9  O2  UNK     1      -1.665  39.997 231.428  1.00  0.00    -0.200 OA
BRANCH   7  10
ATOM     10  N1  UNK     1      -2.866  39.674 229.146  1.00  0.00    -0.307 N 
BRANCH  10  11
ATOM     11  C1  UNK     1      -3.634  38.404 229.220  1.00  0.00     0.135 C 
BRANCH  11  12
ATOM     12  C3  UNK     1      -3.533  37.646 227.899  1.00  0.00     0.016 C 
ATOM     13  C6  UNK     1      -2.737  36.361 228.058  1.00  0.00     0.006 C 
ENDBRANCH  11  12
ENDBRANCH  10  11
BRANCH  10  14
ATOM     14  C2  UNK     1      -3.756  40.862 229.158  1.00  0.00     0.135 C 
BRANCH  14  15
ATOM     15  C4  UNK     1      -4.005  41.352 227.733  1.00  0.00     0.016 C 
ATOM     16  C7  UNK     1      -5.443  41.105 227.305  1.00  0.00     0.006 C 
ENDBRANCH  14  15
ENDBRANCH  10  14
ENDBRANCH   7  10
ENDBRANCH   1   7
BRANCH   6  17
ATOM     17  C13 UNK     1       1.081  44.789 227.874  1.00  0.00     0.176 C 
ATOM     18  O4  UNK     1       0.767  45.938 228.201  1.00  0.00    -0.646 OA
BRANCH  17  19
ATOM     19  O3  UNK     1       2.055  44.540 226.957  1.00  0.00    -0.773 OA
ATOM     20  H19 UNK     1       1.686  44.420 226.055  1.00  0.00     0.167 HD
ENDBRANCH  17  19
ENDBRANCH   6  17
TORSDOF 8
ENDMDL
