MODEL 1
REMARK VINA RESULT:      -5.9      0.000      0.000
REMARK  3 active torsions:
REMARK  status: ('A' for Active; 'I' for Inactive)
REMARK    1  A    between atoms: N1_2  and  C2_5 
REMARK    2  A    between atoms: N2_3  and  C1_4 
REMARK    3  A    between atoms: C1_4  and  C2_5 
ROOT
ATOM      1  S1  UNK     1       3.520  36.118 237.344  1.00  0.00    -0.086 SA
ATOM      2  N1  UNK     1       0.807  36.285 235.833  1.00  0.00    -0.343 N 
ATOM      3  C3  UNK     1       1.456  35.025 235.794  1.00  0.00     0.052 A 
ATOM      4  C4  UNK     1       1.028  37.286 236.813  1.00  0.00     0.052 A 
ATOM      5  C6  UNK     1       2.680  34.818 236.461  1.00  0.00     0.032 A 
ATOM      6  C7  UNK     1       2.209  37.303 237.580  1.00  0.00     0.032 A 
ATOM      7  C10 UNK     1       0.896  33.916 235.123  1.00  0.00     0.031 A 
ATOM      8  C11 UNK     1       0.069  38.285 237.090  1.00  0.00     0.031 A 
ATOM      9  C12 UNK     1       3.316  33.564 236.426  1.00  0.00     0.021 A 
ATOM     10  C13 UNK     1       2.420  38.292 238.556  1.00  0.00     0.021 A 
ATOM     11  C14 UNK     1       1.530  32.670 235.096  1.00  0.00     0.002 A 
ATOM     12  C15 UNK     1       0.281  39.263 238.066  1.00  0.00     0.002 A 
ATOM     13  C16 UNK     1       2.743  32.496 235.745  1.00  0.00     0.002 A 
ATOM     14  C17 UNK     1       1.460  39.270 238.797  1.00  0.00     0.002 A 
ENDROOT
BRANCH   2  15
ATOM     15  C2  UNK     1      -0.223  36.547 234.820  1.00  0.00     0.164 C 
BRANCH  15  16
ATOM     16  C1  UNK     1       0.305  37.510 233.751  1.00  0.00     0.236 C 
ATOM     17  C5  UNK     1       0.991  36.776 232.600  1.00  0.00     0.044 C 
BRANCH  16  18
ATOM     18  N2  UNK     1      -0.815  38.284 233.213  1.00  0.00     0.085 N 
ATOM     19  C8  UNK     1      -2.035  38.010 233.971  1.00  0.00     0.310 C 
ATOM     20  C9  UNK     1      -1.012  37.980 231.797  1.00  0.00     0.310 C 
ENDBRANCH  16  18
ENDBRANCH  15  16
ENDBRANCH   2  15
TORSDOF 3
ENDMDL
MODEL 2
REMARK VINA RESULT:      -5.7      1.976      4.604
REMARK  3 active torsions:
REMARK  status: ('A' for Active; 'I' for Inactive)
REMARK    1  A    between atoms: N1_2  and  C2_5 
REMARK    2  A    between atoms: N2_3  and  C1_4 
REMARK    3  A    between atoms: C1_4  and  C2_5 
ROOT
ATOM      1  S1  UNK     1       0.138  33.665 234.945  1.00  0.00    -0.086 SA
ATOM      2  N1  UNK     1       1.630  36.356 235.393  1.00  0.00    -0.343 N 
ATOM      3  C3  UNK     1       1.982  35.303 236.275  1.00  0.00     0.052 A 
ATOM      4  C4  UNK     1       1.038  36.185 234.116  1.00  0.00     0.052 A 
ATOM      5  C6  UNK     1       1.392  34.029 236.157  1.00  0.00     0.032 A 
ATOM      6  C7  UNK     1       0.356  34.999 233.784  1.00  0.00     0.032 A 
ATOM      7  C10 UNK     1       2.959  35.467 237.282  1.00  0.00     0.031 A 
ATOM      8  C11 UNK     1       1.134  37.172 233.110  1.00  0.00     0.031 A 
ATOM      9  C12 UNK     1       1.752  32.986 237.029  1.00  0.00     0.021 A 
ATOM     10  C13 UNK     1      -0.222  34.831 232.513  1.00  0.00     0.021 A 
ATOM     11  C14 UNK     1       3.316  34.425 238.143  1.00  0.00     0.002 A 
ATOM     12  C15 UNK     1       0.563  36.998 231.846  1.00  0.00     0.002 A 
ATOM     13  C16 UNK     1       2.709  33.184 238.019  1.00  0.00     0.002 A 
ATOM     14  C17 UNK     1      -0.119  35.828 231.548  1.00  0.00     0.002 A 
ENDROOT
BRANCH   2  15
ATOM     15  C2  UNK     1       1.964  37.725 235.806  1.00  0.00     0.164 C 
BRANCH  15  16
ATOM     16  C1  UNK     1       0.739  38.421 236.408  1.00  0.00     0.236 C 
ATOM     17  C5  UNK     1      -0.138  37.458 237.207  1.00  0.00     0.044 C 
BRANCH  16  18
ATOM     18  N2  UNK     1       1.191  39.493 237.297  1.00  0.00     0.085 N 
ATOM     19  C8  UNK     1       2.506  39.177 237.850  1.00  0.00     0.310 C 
ATOM     20  C9  UNK     1       0.222  39.708 238.370  1.00  0.00     0.310 C 
ENDBRANCH  16  18
ENDBRANCH  15  16
ENDBRANCH   2  15
TORSDOF 3
ENDMDL
MODEL 3
REMARK VINA RESULT:      -5.6      2.014      4.956
REMARK  3 active torsions:
REMARK  status: ('A' for Active; 'I' for Inactive)
REMARK    1  A    between atoms: N1_2  and  C2_5 
REMARK    2  A    between atoms: N2_3  and  C1_4 
REMARK    3  A    between atoms: C1_4  and  C2_5 
ROOT
ATOM      1  S1  UNK     1       3.038  34.856 239.975  1.00  0.00    -0.086 SA
ATOM      2  N1  UNK     1       2.612  35.897 237.076  1.00  0.00    -0.343 N 
ATOM      3  C3  UNK     1       2.951  36.881 238.039  1.00  0.00     0.052 A 
ATOM      4  C4  UNK     1       2.879  34.510 237.199  1.00  0.00     0.052 A 
ATOM      5  C6  UNK     1       3.192  36.529 239.382  1.00  0.00     0.032 A 
ATOM      6  C7  UNK     1       3.114  33.924 238.458  1.00  0.00     0.032 A 
ATOM      7  C10 UNK     1       3.098  38.243 237.696  1.00  0.00     0.031 A 
ATOM      8  C11 UNK     1       2.960  33.661 236.072  1.00  0.00     0.031 A 
ATOM      9  C12 UNK     1       3.536  37.508 240.331  1.00  0.00     0.021 A 
ATOM     10  C13 UNK     1       3.387  32.550 238.573  1.00  0.00     0.021 A 
ATOM     11  C14 UNK     1       3.445  39.211 238.643  1.00  0.00     0.002 A 
ATOM     12  C15 UNK     1       3.238  32.297 236.192  1.00  0.00     0.002 A 
ATOM     13  C16 UNK     1       3.661  38.843 239.963  1.00  0.00     0.002 A 
ATOM     14  C17 UNK     1       3.448  31.739 237.444  1.00  0.00     0.002 A 
ENDROOT
BRANCH   2  15
ATOM     15  C2  UNK     1       1.996  36.358 235.825  1.00  0.00     0.164 C 
BRANCH  15  16
ATOM     16  C1  UNK     1       0.476  36.465 235.980  1.00  0.00     0.236 C 
ATOM     17  C5  UNK     1      -0.049  37.847 235.594  1.00  0.00     0.044 C 
BRANCH  16  18
ATOM     18  N2  UNK     1      -0.162  35.465 235.122  1.00  0.00     0.085 N 
ATOM     19  C8  UNK     1       0.472  35.445 233.804  1.00  0.00     0.310 C 
ATOM     20  C9  UNK     1      -1.592  35.736 234.998  1.00  0.00     0.310 C 
ENDBRANCH  16  18
ENDBRANCH  15  16
ENDBRANCH   2  15
TORSDOF 3
ENDMDL
MODEL 4
REMARK VINA RESULT:      -5.5      2.707      4.853
REMARK  3 active torsions:
REMARK  status: ('A' for Active; 'I' for Inactive)
REMARK    1  A    between atoms: N1_2  and  C2_5 
REMARK    2  A    between atoms: N2_3  and  C1_4 
REMARK    3  A    between atoms: C1_4  and  C2_5 
ROOT
ATOM      1  S1  UNK     1       1.753  38.772 236.335  1.00  0.00    -0.086 SA
ATOM      2  N1  UNK     1       1.676  35.923 237.577  1.00  0.00    -0.343 N 
ATOM      3  C3  UNK     1       1.341  36.003 236.202  1.00  0.00     0.052 A 
ATOM      4  C4  UNK     1       2.440  36.884 238.288  1.00  0.00     0.052 A 
ATOM      5  C6  UNK     1       1.363  37.237 235.521  1.00  0.00     0.032 A 
ATOM      6  C7  UNK     1       2.571  38.203 237.813  1.00  0.00     0.032 A 
ATOM      7  C10 UNK     1       1.008  34.859 235.445  1.00  0.00     0.031 A 
ATOM      8  C11 UNK     1       3.131  36.559 239.476  1.00  0.00     0.031 A 
ATOM      9  C12 UNK     1       1.037  37.310 234.155  1.00  0.00     0.021 A 
ATOM     10  C13 UNK     1       3.336  39.150 238.517  1.00  0.00     0.021 A 
ATOM     11  C14 UNK     1       0.690  34.936 234.087  1.00  0.00     0.002 A 
ATOM     12  C15 UNK     1       3.896  37.502 240.169  1.00  0.00     0.002 A 
ATOM     13  C16 UNK     1       0.701  36.164 233.442  1.00  0.00     0.002 A 
ATOM     14  C17 UNK     1       3.995  38.800 239.691  1.00  0.00     0.002 A 
ENDROOT
BRANCH   2  15
ATOM     15  C2  UNK     1       1.258  34.719 238.307  1.00  0.00     0.164 C 
BRANCH  15  16
ATOM     16  C1  UNK     1       0.058  35.024 239.208  1.00  0.00     0.236 C 
ATOM     17  C5  UNK     1      -1.274  34.777 238.500  1.00  0.00     0.044 C 
BRANCH  16  18
ATOM     18  N2  UNK     1       0.124  34.171 240.395  1.00  0.00     0.085 N 
ATOM     19  C8  UNK     1       1.376  33.416 240.411  1.00  0.00     0.310 C 
ATOM     20  C9  UNK     1      -1.021  33.264 240.437  1.00  0.00     0.310 C 
ENDBRANCH  16  18
ENDBRANCH  15  16
ENDBRANCH   2  15
TORSDOF 3
ENDMDL
MODEL 5
REMARK VINA RESULT:      -5.5      2.552      3.305
REMARK  3 active torsions:
REMARK  status: ('A' for Active; 'I' for Inactive)
REMARK    1  A    between atoms: N1_2  and  C2_5 
REMARK    2  A    between atoms: N2_3  and  C1_4 
REMARK    3  A    between atoms: C1_4  and  C2_5 
ROOT
ATOM      1  S1  UNK     1       2.036  35.201 239.936  1.00  0.00    -0.086 SA
ATOM      2  N1  UNK     1       0.707  37.048 237.817  1.00  0.00    -0.343 N 
ATOM      3  C3  UNK     1      -0.127  36.041 238.365  1.00  0.00     0.052 A 
ATOM      4  C4  UNK     1       1.879  37.559 238.431  1.00  0.00     0.052 A 
ATOM      5  C6  UNK     1       0.354  35.157 239.351  1.00  0.00     0.032 A 
ATOM      6  C7  UNK     1       2.557  36.826 239.424  1.00  0.00     0.032 A 
ATOM      7  C10 UNK     1      -1.479  35.899 237.980  1.00  0.00     0.031 A 
ATOM      8  C11 UNK     1       2.398  38.832 238.108  1.00  0.00     0.031 A 
ATOM      9  C12 UNK     1      -0.481  34.165 239.897  1.00  0.00     0.021 A 
ATOM     10  C13 UNK     1       3.713  37.341 240.037  1.00  0.00     0.021 A 
ATOM     11  C14 UNK     1      -2.305  34.915 238.529  1.00  0.00     0.002 A 
ATOM     12  C15 UNK     1       3.544  39.342 238.724  1.00  0.00     0.002 A 
ATOM     13  C16 UNK     1      -1.804  34.044 239.486  1.00  0.00     0.002 A 
ATOM     14  C17 UNK     1       4.205  38.594 239.686  1.00  0.00     0.002 A 
ENDROOT
BRANCH   2  15
ATOM     15  C2  UNK     1       0.290  37.656 236.547  1.00  0.00     0.164 C 
BRANCH  15  16
ATOM     16  C1  UNK     1       1.167  37.154 235.395  1.00  0.00     0.236 C 
ATOM     17  C5  UNK     1       1.049  35.644 235.194  1.00  0.00     0.044 C 
BRANCH  16  18
ATOM     18  N2  UNK     1       0.761  37.826 234.160  1.00  0.00     0.085 N 
ATOM     19  C8  UNK     1      -0.666  38.141 234.197  1.00  0.00     0.310 C 
ATOM     20  C9  UNK     1       1.071  36.992 233.000  1.00  0.00     0.310 C 
ENDBRANCH  16  18
ENDBRANCH  15  16
ENDBRANCH   2  15
TORSDOF 3
ENDMDL
MODEL 6
REMARK VINA RESULT:      -5.4      2.555      4.781
REMARK  3 active torsions:
REMARK  status: ('A' for Active; 'I' for Inactive)
REMARK    1  A    between atoms: N1_2  and  C2_5 
REMARK    2  A    between atoms: N2_3  and  C1_4 
REMARK    3  A    between atoms: C1_4  and  C2_5 
ROOT
ATOM      1  S1  UNK     1      -0.944  33.817 234.874  1.00  0.00    -0.086 SA
ATOM      2  N1  UNK     1      -0.251  36.715 235.762  1.00  0.00    -0.343 N 
ATOM      3  C3  UNK     1       0.069  36.390 234.420  1.00  0.00     0.052 A 
ATOM      4  C4  UNK     1      -1.213  36.041 236.557  1.00  0.00     0.052 A 
ATOM      5  C6  UNK     1      -0.219  35.115 233.893  1.00  0.00     0.032 A 
ATOM      6  C7  UNK     1      -1.628  34.732 236.241  1.00  0.00     0.032 A 
ATOM      7  C10 UNK     1       0.652  37.330 233.542  1.00  0.00     0.031 A 
ATOM      8  C11 UNK     1      -1.825  36.656 237.672  1.00  0.00     0.031 A 
ATOM      9  C12 UNK     1       0.094  34.801 232.558  1.00  0.00     0.021 A 
ATOM     10  C13 UNK     1      -2.589  34.072 237.027  1.00  0.00     0.021 A 
ATOM     11  C14 UNK     1       0.956  37.014 232.215  1.00  0.00     0.002 A 
ATOM     12  C15 UNK     1      -2.784  35.997 238.446  1.00  0.00     0.002 A 
ATOM     13  C16 UNK     1       0.680  35.747 231.724  1.00  0.00     0.002 A 
ATOM     14  C17 UNK     1      -3.164  34.702 238.127  1.00  0.00     0.002 A 
ENDROOT
BRANCH   2  15
ATOM     15  C2  UNK     1       0.417  37.881 236.355  1.00  0.00     0.164 C 
BRANCH  15  16
ATOM     16  C1  UNK     1       1.564  37.438 237.269  1.00  0.00     0.236 C 
ATOM     17  C5  UNK     1       2.902  37.388 236.535  1.00  0.00     0.044 C 
BRANCH  16  18
ATOM     18  N2  UNK     1       1.675  38.381 238.384  1.00  0.00     0.085 N 
ATOM     19  C8  UNK     1       0.647  39.417 238.280  1.00  0.00     0.310 C 
ATOM     20  C9  UNK     1       3.007  38.982 238.413  1.00  0.00     0.310 C 
ENDBRANCH  16  18
ENDBRANCH  15  16
ENDBRANCH   2  15
TORSDOF 3
ENDMDL
MODEL 7
REMARK VINA RESULT:      -5.3      1.851      4.809
REMARK  3 active torsions:
REMARK  status: ('A' for Active; 'I' for Inactive)
REMARK    1  A    between atoms: N1_2  and  C2_5 
REMARK    2  A    between atoms: N2_3  and  C1_4 
REMARK    3  A    between atoms: C1_4  and  C2_5 
ROOT
ATOM      1  S1  UNK     1       3.311  34.812 237.853  1.00  0.00    -0.086 SA
ATOM      2  N1  UNK     1       0.956  35.892 236.134  1.00  0.00    -0.343 N 
ATOM      3  C3  UNK     1       1.686  36.868 236.859  1.00  0.00     0.052 A 
ATOM      4  C4  UNK     1       1.444  34.610 235.774  1.00  0.00     0.052 A 
ATOM      5  C6  UNK     1       2.790  36.504 237.655  1.00  0.00     0.032 A 
ATOM      6  C7  UNK     1       2.524  34.024 236.462  1.00  0.00     0.032 A 
ATOM      7  C10 UNK     1       1.370  38.242 236.791  1.00  0.00     0.031 A 
ATOM      8  C11 UNK     1       0.900  33.880 234.694  1.00  0.00     0.031 A 
ATOM      9  C12 UNK     1       3.516  37.477 238.366  1.00  0.00     0.021 A 
ATOM     10  C13 UNK     1       3.009  32.757 236.095  1.00  0.00     0.021 A 
ATOM     11  C14 UNK     1       2.097  39.205 237.495  1.00  0.00     0.002 A 
ATOM     12  C15 UNK     1       1.390  32.623 234.330  1.00  0.00     0.002 A 
ATOM     13  C16 UNK     1       3.170  38.822 238.287  1.00  0.00     0.002 A 
ATOM     14  C17 UNK     1       2.443  32.058 235.034  1.00  0.00     0.002 A 
ENDROOT
BRANCH   2  15
ATOM     15  C2  UNK     1      -0.384  36.263 235.661  1.00  0.00     0.164 C 
BRANCH  15  16
ATOM     16  C1  UNK     1      -1.462  35.638 236.553  1.00  0.00     0.236 C 
ATOM     17  C5  UNK     1      -1.836  36.540 237.727  1.00  0.00     0.044 C 
BRANCH  16  18
ATOM     18  N2  UNK     1      -2.660  35.391 235.749  1.00  0.00     0.085 N 
ATOM     19  C8  UNK     1      -2.472  35.888 234.387  1.00  0.00     0.310 C 
ATOM     20  C9  UNK     1      -3.827  36.019 236.367  1.00  0.00     0.310 C 
ENDBRANCH  16  18
ENDBRANCH  15  16
ENDBRANCH   2  15
TORSDOF 3
ENDMDL
MODEL 8
REMARK VINA RESULT:      -5.1      2.336      5.474
REMARK  3 active torsions:
REMARK  status: ('A' for Active; 'I' for Inactive)
REMARK    1  A    between atoms: N1_2  and  C2_5 
REMARK    2  A    between atoms: N2_3  and  C1_4 
REMARK    3  A    between atoms: C1_4  and  C2_5 
ROOT
ATOM      1  S1  UNK     1       1.826  38.525 236.378  1.00  0.00    -0.086 SA
ATOM      2  N1  UNK     1       1.366  35.983 238.109  1.00  0.00    -0.343 N 
ATOM      3  C3  UNK     1       2.278  36.930 238.638  1.00  0.00     0.052 A 
ATOM      4  C4  UNK     1       0.357  36.268 237.154  1.00  0.00     0.052 A 
ATOM      5  C6  UNK     1       2.552  38.133 237.957  1.00  0.00     0.032 A 
ATOM      6  C7  UNK     1       0.440  37.406 236.327  1.00  0.00     0.032 A 
ATOM      7  C10 UNK     1       2.924  36.735 239.879  1.00  0.00     0.031 A 
ATOM      8  C11 UNK     1      -0.789  35.455 237.011  1.00  0.00     0.031 A 
ATOM      9  C12 UNK     1       3.452  39.073 238.491  1.00  0.00     0.021 A 
ATOM     10  C13 UNK     1      -0.567  37.688 235.387  1.00  0.00     0.021 A 
ATOM     11  C14 UNK     1       3.813  37.674 240.407  1.00  0.00     0.002 A 
ATOM     12  C15 UNK     1      -1.790  35.744 236.079  1.00  0.00     0.002 A 
ATOM     13  C16 UNK     1       4.081  38.843 239.710  1.00  0.00     0.002 A 
ATOM     14  C17 UNK     1      -1.677  36.859 235.263  1.00  0.00     0.002 A 
ENDROOT
BRANCH   2  15
ATOM     15  C2  UNK     1       1.425  34.615 238.641  1.00  0.00     0.164 C 
BRANCH  15  16
ATOM     16  C1  UNK     1       2.405  33.764 237.828  1.00  0.00     0.236 C 
ATOM     17  C5  UNK     1       3.504  33.157 238.700  1.00  0.00     0.044 C 
BRANCH  16  18
ATOM     18  N2  UNK     1       1.668  32.679 237.179  1.00  0.00     0.085 N 
ATOM     19  C8  UNK     1       2.256  31.385 237.523  1.00  0.00     0.310 C 
ATOM     20  C9  UNK     1       1.655  32.867 235.729  1.00  0.00     0.310 C 
ENDBRANCH  16  18
ENDBRANCH  15  16
ENDBRANCH   2  15
TORSDOF 3
ENDMDL
MODEL 9
REMARK VINA RESULT:      -5.1      2.207      4.817
REMARK  3 active torsions:
REMARK  status: ('A' for Active; 'I' for Inactive)
REMARK    1  A    between atoms: N1_2  and  C2_5 
REMARK    2  A    between atoms: N2_3  and  C1_4 
REMARK    3  A    between atoms: C1_4  and  C2_5 
ROOT
ATOM      1  S1  UNK     1       1.498  38.802 236.342  1.00  0.00    -0.086 SA
ATOM      2  N1  UNK     1       1.808  35.892 237.391  1.00  0.00    -0.343 N 
ATOM      3  C3  UNK     1       1.391  36.018 236.042  1.00  0.00     0.052 A 
ATOM      4  C4  UNK     1       2.498  36.888 238.128  1.00  0.00     0.052 A 
ATOM      5  C6  UNK     1       1.237  37.285 235.445  1.00  0.00     0.032 A 
ATOM      6  C7  UNK     1       2.455  38.241 237.737  1.00  0.00     0.032 A 
ATOM      7  C10 UNK     1       1.146  34.892 235.226  1.00  0.00     0.031 A 
ATOM      8  C11 UNK     1       3.286  36.572 239.257  1.00  0.00     0.031 A 
ATOM      9  C12 UNK     1       0.831  37.405 234.104  1.00  0.00     0.021 A 
ATOM     10  C13 UNK     1       3.148  39.223 238.466  1.00  0.00     0.021 A 
ATOM     11  C14 UNK     1       0.747  35.016 233.893  1.00  0.00     0.002 A 
ATOM     12  C15 UNK     1       3.977  37.552 239.974  1.00  0.00     0.002 A 
ATOM     13  C16 UNK     1       0.586  36.274 233.332  1.00  0.00     0.002 A 
ATOM     14  C17 UNK     1       3.905  38.880 239.581  1.00  0.00     0.002 A 
ENDROOT
BRANCH   2  15
ATOM     15  C2  UNK     1       1.568  34.605 238.056  1.00  0.00     0.164 C 
BRANCH  15  16
ATOM     16  C1  UNK     1       2.778  33.679 237.891  1.00  0.00     0.236 C 
ATOM     17  C5  UNK     1       3.314  33.183 239.233  1.00  0.00     0.044 C 
BRANCH  16  18
ATOM     18  N2  UNK     1       2.384  32.521 237.086  1.00  0.00     0.085 N 
ATOM     19  C8  UNK     1       1.485  31.654 237.847  1.00  0.00     0.310 C 
ATOM     20  C9  UNK     1       3.564  31.778 236.650  1.00  0.00     0.310 C 
ENDBRANCH  16  18
ENDBRANCH  15  16
ENDBRANCH   2  15
TORSDOF 3
ENDMDL
