MODEL 1
REMARK VINA RESULT:      -6.2      0.000      0.000
REMARK  6 active torsions:
REMARK  status: ('A' for Active; 'I' for Inactive)
REMARK    1  A    between atoms: O1_2  and  C7_14 
REMARK    2  A    between atoms: O1_2  and  C14_21 
REMARK    3  A    between atoms: O2_3  and  C19_26 
REMARK    4  A    between atoms: N1_4  and  C5_12 
REMARK    5  A    between atoms: C5_12  and  C7_14 
REMARK    6  A    between atoms: C14_21  and  C19_26 
ROOT
ATOM      1  S1  UNK     1      -4.632  40.465 228.473  1.00  0.00    -0.087 SA
ATOM      2  N1  UNK     1      -2.282  37.036 234.046  1.00  0.00     0.093 N 
ATOM      3  N2  UNK     1      -2.623  38.752 231.801  1.00  0.00    -0.363 N 
ATOM      4  N3  UNK     1      -2.241  40.613 230.515  1.00  0.00    -0.341 N 
ATOM      5  H3  UNK     1      -2.060  41.107 231.389  1.00  0.00     0.167 HD
ATOM      6  C1  UNK     1      -1.205  37.947 233.630  1.00  0.00     0.292 C 
ATOM      7  C2  UNK     1      -3.056  36.593 232.877  1.00  0.00     0.292 C 
ATOM      8  C3  UNK     1      -1.774  39.172 232.912  1.00  0.00     0.154 C 
ATOM      9  C4  UNK     1      -3.665  37.787 232.141  1.00  0.00     0.154 C 
ATOM     10  C6  UNK     1      -2.567  39.349 230.588  1.00  0.00     0.115 C 
ATOM     11  C8  UNK     1      -2.899  38.480 229.418  1.00  0.00     0.025 A 
ATOM     12  C9  UNK     1      -3.846  38.861 228.455  1.00  0.00     0.019 A 
ATOM     13  C10 UNK     1      -2.284  37.223 229.337  1.00  0.00     0.016 A 
ATOM     14  C11 UNK     1      -2.121  41.340 229.318  1.00  0.00     0.051 A 
ATOM     15  C12 UNK     1      -3.137  41.437 228.350  1.00  0.00     0.032 A 
ATOM     16  C13 UNK     1      -4.171  37.970 227.422  1.00  0.00     0.020 A 
ATOM     17  C15 UNK     1      -2.610  36.349 228.300  1.00  0.00     0.001 A 
ATOM     18  C16 UNK     1      -3.554  36.721 227.347  1.00  0.00     0.001 A 
ATOM     19  C17 UNK     1      -0.954  42.098 229.141  1.00  0.00     0.031 A 
ATOM     20  C18 UNK     1      -2.970  42.268 227.233  1.00  0.00     0.021 A 
ATOM     21  C20 UNK     1      -0.788  42.917 228.024  1.00  0.00     0.002 A 
ATOM     22  C21 UNK     1      -1.798  43.003 227.071  1.00  0.00     0.002 A 
ENDROOT
BRANCH   2  23
ATOM     23  C5  UNK     1      -1.733  35.887 234.764  1.00  0.00     0.298 C 
BRANCH  23  24
ATOM     24  C7  UNK     1      -0.471  36.278 235.518  1.00  0.00     0.198 C 
BRANCH  24  25
ATOM     25  O1  UNK     1      -0.828  36.660 236.840  1.00  0.00    -0.387 OA
BRANCH  25  26
ATOM     26  C14 UNK     1       0.058  37.644 237.356  1.00  0.00     0.193 C 
BRANCH  26  27
ATOM     27  C19 UNK     1       1.092  37.981 236.299  1.00  0.00     0.190 C 
BRANCH  27  28
ATOM     28  O2  UNK     1       1.142  39.392 236.132  1.00  0.00    -0.399 OA
ATOM     29  H25 UNK     1       0.809  39.595 235.242  1.00  0.00     0.209 HD
ENDBRANCH  27  28
ENDBRANCH  26  27
ENDBRANCH  25  26
ENDBRANCH  24  25
ENDBRANCH  23  24
ENDBRANCH   2  23
TORSDOF 6
ENDMDL
MODEL 2
REMARK VINA RESULT:      -6.2      4.969     10.664
REMARK  6 active torsions:
REMARK  status: ('A' for Active; 'I' for Inactive)
REMARK    1  A    between atoms: O1_2  and  C7_14 
REMARK    2  A    between atoms: O1_2  and  C14_21 
REMARK    3  A    between atoms: O2_3  and  C19_26 
REMARK    4  A    between atoms: N1_4  and  C5_12 
REMARK    5  A    between atoms: C5_12  and  C7_14 
REMARK    6  A    between atoms: C14_21  and  C19_26 
ROOT
ATOM      1  S1  UNK     1       1.857  34.945 240.256  1.00  0.00    -0.087 SA
ATOM      2  N1  UNK     1      -0.642  37.243 234.190  1.00  0.00     0.093 N 
ATOM      3  N2  UNK     1       0.712  35.844 236.266  1.00  0.00    -0.363 N 
ATOM      4  N3  UNK     1       1.763  34.052 237.240  1.00  0.00    -0.341 N 
ATOM      5  H3  UNK     1       1.153  33.463 236.674  1.00  0.00     0.167 HD
ATOM      6  C1  UNK     1       0.265  36.129 233.874  1.00  0.00     0.292 C 
ATOM      7  C2  UNK     1      -0.180  37.953 235.391  1.00  0.00     0.292 C 
ATOM      8  C3  UNK     1       0.344  35.143 235.040  1.00  0.00     0.154 C 
ATOM      9  C4  UNK     1      -0.110  37.007 236.591  1.00  0.00     0.154 C 
ATOM     10  C6  UNK     1       1.626  35.348 237.131  1.00  0.00     0.115 C 
ATOM     11  C8  UNK     1       2.408  36.361 237.906  1.00  0.00     0.025 A 
ATOM     12  C9  UNK     1       2.521  36.302 239.303  1.00  0.00     0.019 A 
ATOM     13  C10 UNK     1       2.979  37.429 237.201  1.00  0.00     0.016 A 
ATOM     14  C11 UNK     1       2.692  33.413 238.079  1.00  0.00     0.051 A 
ATOM     15  C12 UNK     1       2.794  33.646 239.462  1.00  0.00     0.032 A 
ATOM     16  C13 UNK     1       3.203  37.322 239.980  1.00  0.00     0.020 A 
ATOM     17  C15 UNK     1       3.661  38.434 237.885  1.00  0.00     0.001 A 
ATOM     18  C16 UNK     1       3.770  38.383 239.272  1.00  0.00     0.001 A 
ATOM     19  C17 UNK     1       3.487  32.408 237.509  1.00  0.00     0.031 A 
ATOM     20  C18 UNK     1       3.682  32.890 240.241  1.00  0.00     0.021 A 
ATOM     21  C20 UNK     1       4.374  31.662 238.287  1.00  0.00     0.002 A 
ATOM     22  C21 UNK     1       4.469  31.902 239.654  1.00  0.00     0.002 A 
ENDROOT
BRANCH   2  23
ATOM     23  C5  UNK     1      -0.741  38.161 233.056  1.00  0.00     0.298 C 
BRANCH  23  24
ATOM     24  C7  UNK     1      -2.044  38.944 233.113  1.00  0.00     0.198 C 
BRANCH  24  25
ATOM     25  O1  UNK     1      -2.643  38.927 231.823  1.00  0.00    -0.387 OA
BRANCH  25  26
ATOM     26  C14 UNK     1      -1.689  39.176 230.801  1.00  0.00     0.193 C 
BRANCH  26  27
ATOM     27  C19 UNK     1      -2.085  40.433 230.050  1.00  0.00     0.190 C 
BRANCH  27  28
ATOM     28  O2  UNK     1      -1.368  41.539 230.586  1.00  0.00    -0.399 OA
ATOM     29  H25 UNK     1      -1.244  42.184 229.869  1.00  0.00     0.209 HD
ENDBRANCH  27  28
ENDBRANCH  26  27
ENDBRANCH  25  26
ENDBRANCH  24  25
ENDBRANCH  23  24
ENDBRANCH   2  23
TORSDOF 6
ENDMDL
MODEL 3
REMARK VINA RESULT:      -6.2      4.067      9.005
REMARK  6 active torsions:
REMARK  status: ('A' for Active; 'I' for Inactive)
REMARK    1  A    between atoms: O1_2  and  C7_14 
REMARK    2  A    between atoms: O1_2  and  C14_21 
REMARK    3  A    between atoms: O2_3  and  C19_26 
REMARK    4  A    between atoms: N1_4  and  C5_12 
REMARK    5  A    between atoms: C5_12  and  C7_14 
REMARK    6  A    between atoms: C14_21  and  C19_26 
ROOT
ATOM      1  S1  UNK     1       2.035  34.925 238.315  1.00  0.00    -0.087 SA
ATOM      2  N1  UNK     1      -0.541  36.272 231.999  1.00  0.00     0.093 N 
ATOM      3  N2  UNK     1       0.715  36.386 234.551  1.00  0.00    -0.363 N 
ATOM      4  N3  UNK     1       2.180  37.182 236.127  1.00  0.00    -0.341 N 
ATOM      5  H3  UNK     1       2.803  37.403 235.350  1.00  0.00     0.167 HD
ATOM      6  C1  UNK     1       0.067  37.522 232.479  1.00  0.00     0.292 C 
ATOM      7  C2  UNK     1      -1.072  35.496 233.129  1.00  0.00     0.292 C 
ATOM      8  C3  UNK     1       1.199  37.235 233.467  1.00  0.00     0.154 C 
ATOM      9  C4  UNK     1       0.034  35.163 234.132  1.00  0.00     0.154 C 
ATOM     10  C6  UNK     1       1.033  36.621 235.845  1.00  0.00     0.115 C 
ATOM     11  C8  UNK     1       0.015  36.198 236.854  1.00  0.00     0.025 A 
ATOM     12  C9  UNK     1       0.349  35.394 237.955  1.00  0.00     0.019 A 
ATOM     13  C10 UNK     1      -1.319  36.569 236.638  1.00  0.00     0.016 A 
ATOM     14  C11 UNK     1       2.616  37.503 237.424  1.00  0.00     0.051 A 
ATOM     15  C12 UNK     1       2.688  36.580 238.482  1.00  0.00     0.032 A 
ATOM     16  C13 UNK     1      -0.663  34.966 238.825  1.00  0.00     0.020 A 
ATOM     17  C15 UNK     1      -2.316  36.143 237.515  1.00  0.00     0.001 A 
ATOM     18  C16 UNK     1      -1.989  35.340 238.605  1.00  0.00     0.001 A 
ATOM     19  C17 UNK     1       3.108  38.800 237.633  1.00  0.00     0.031 A 
ATOM     20  C18 UNK     1       3.232  36.962 239.717  1.00  0.00     0.021 A 
ATOM     21  C20 UNK     1       3.641  39.179 238.865  1.00  0.00     0.002 A 
ATOM     22  C21 UNK     1       3.705  38.258 239.907  1.00  0.00     0.002 A 
ENDROOT
BRANCH   2  23
ATOM     23  C5  UNK     1      -1.596  36.554 231.028  1.00  0.00     0.298 C 
BRANCH  23  24
ATOM     24  C7  UNK     1      -1.418  37.940 230.429  1.00  0.00     0.198 C 
BRANCH  24  25
ATOM     25  O1  UNK     1      -2.664  38.373 229.898  1.00  0.00    -0.387 OA
BRANCH  25  26
ATOM     26  C14 UNK     1      -2.677  39.775 229.673  1.00  0.00     0.193 C 
BRANCH  26  27
ATOM     27  C19 UNK     1      -1.294  40.333 229.949  1.00  0.00     0.190 C 
BRANCH  27  28
ATOM     28  O2  UNK     1      -1.423  41.622 230.537  1.00  0.00    -0.399 OA
ATOM     29  H25 UNK     1      -0.681  42.165 230.221  1.00  0.00     0.209 HD
ENDBRANCH  27  28
ENDBRANCH  26  27
ENDBRANCH  25  26
ENDBRANCH  24  25
ENDBRANCH  23  24
ENDBRANCH   2  23
TORSDOF 6
ENDMDL
MODEL 4
REMARK VINA RESULT:      -6.2      4.180      9.457
REMARK  6 active torsions:
REMARK  status: ('A' for Active; 'I' for Inactive)
REMARK    1  A    between atoms: O1_2  and  C7_14 
REMARK    2  A    between atoms: O1_2  and  C14_21 
REMARK    3  A    between atoms: O2_3  and  C19_26 
REMARK    4  A    between atoms: N1_4  and  C5_12 
REMARK    5  A    between atoms: C5_12  and  C7_14 
REMARK    6  A    between atoms: C14_21  and  C19_26 
ROOT
ATOM      1  S1  UNK     1       0.287  34.922 238.122  1.00  0.00    -0.087 SA
ATOM      2  N1  UNK     1      -0.920  37.401 231.740  1.00  0.00     0.093 N 
ATOM      3  N2  UNK     1       0.062  36.014 234.023  1.00  0.00    -0.363 N 
ATOM      4  N3  UNK     1       1.093  34.298 235.144  1.00  0.00    -0.341 N 
ATOM      5  H3  UNK     1       0.741  33.686 234.409  1.00  0.00     0.167 HD
ATOM      6  C1  UNK     1       0.195  36.450 231.616  1.00  0.00     0.292 C 
ATOM      7  C2  UNK     1      -0.889  38.055 233.055  1.00  0.00     0.292 C 
ATOM      8  C3  UNK     1       0.126  35.383 232.709  1.00  0.00     0.154 C 
ATOM      9  C4  UNK     1      -0.981  37.024 234.181  1.00  0.00     0.154 C 
ATOM     10  C6  UNK     1       0.793  35.569 235.071  1.00  0.00     0.115 C 
ATOM     11  C8  UNK     1       1.191  36.603 236.075  1.00  0.00     0.025 A 
ATOM     12  C9  UNK     1       0.956  36.435 237.448  1.00  0.00     0.019 A 
ATOM     13  C10 UNK     1       1.753  37.797 235.601  1.00  0.00     0.016 A 
ATOM     14  C11 UNK     1       1.865  33.716 236.163  1.00  0.00     0.051 A 
ATOM     15  C12 UNK     1       1.579  33.836 237.535  1.00  0.00     0.032 A 
ATOM     16  C13 UNK     1       1.283  37.473 238.332  1.00  0.00     0.020 A 
ATOM     17  C15 UNK     1       2.080  38.818 236.491  1.00  0.00     0.001 A 
ATOM     18  C16 UNK     1       1.842  38.658 237.854  1.00  0.00     0.001 A 
ATOM     19  C17 UNK     1       2.921  32.880 235.771  1.00  0.00     0.031 A 
ATOM     20  C18 UNK     1       2.346  33.137 238.479  1.00  0.00     0.021 A 
ATOM     21  C20 UNK     1       3.686  32.192 236.714  1.00  0.00     0.002 A 
ATOM     22  C21 UNK     1       3.396  32.320 238.068  1.00  0.00     0.002 A 
ENDROOT
BRANCH   2  23
ATOM     23  C5  UNK     1      -0.868  38.395 230.669  1.00  0.00     0.298 C 
BRANCH  23  24
ATOM     24  C7  UNK     1      -1.887  39.498 230.912  1.00  0.00     0.198 C 
BRANCH  24  25
ATOM     25  O1  UNK     1      -2.030  40.259 229.719  1.00  0.00    -0.387 OA
BRANCH  25  26
ATOM     26  C14 UNK     1      -0.892  41.075 229.481  1.00  0.00     0.193 C 
BRANCH  26  27
ATOM     27  C19 UNK     1      -1.265  42.525 229.720  1.00  0.00     0.190 C 
BRANCH  27  28
ATOM     28  O2  UNK     1      -0.104  43.242 230.124  1.00  0.00    -0.399 OA
ATOM     29  H25 UNK     1       0.117  42.960 231.027  1.00  0.00     0.209 HD
ENDBRANCH  27  28
ENDBRANCH  26  27
ENDBRANCH  25  26
ENDBRANCH  24  25
ENDBRANCH  23  24
ENDBRANCH   2  23
TORSDOF 6
ENDMDL
MODEL 5
REMARK VINA RESULT:      -6.0      5.736      8.619
REMARK  6 active torsions:
REMARK  status: ('A' for Active; 'I' for Inactive)
REMARK    1  A    between atoms: O1_2  and  C7_14 
REMARK    2  A    between atoms: O1_2  and  C14_21 
REMARK    3  A    between atoms: O2_3  and  C19_26 
REMARK    4  A    between atoms: N1_4  and  C5_12 
REMARK    5  A    between atoms: C5_12  and  C7_14 
REMARK    6  A    between atoms: C14_21  and  C19_26 
ROOT
ATOM      1  S1  UNK     1      -0.492  37.373 236.868  1.00  0.00    -0.087 SA
ATOM      2  N1  UNK     1       0.488  31.413 233.427  1.00  0.00     0.093 N 
ATOM      3  N2  UNK     1       0.775  33.812 234.930  1.00  0.00    -0.363 N 
ATOM      4  N3  UNK     1       1.774  35.234 236.429  1.00  0.00    -0.341 N 
ATOM      5  H3  UNK     1       2.090  34.398 236.920  1.00  0.00     0.167 HD
ATOM      6  C1  UNK     1       1.813  31.851 233.892  1.00  0.00     0.292 C 
ATOM      7  C2  UNK     1      -0.365  32.576 233.148  1.00  0.00     0.292 C 
ATOM      8  C3  UNK     1       1.694  32.700 235.158  1.00  0.00     0.154 C 
ATOM      9  C4  UNK     1      -0.533  33.443 234.397  1.00  0.00     0.154 C 
ATOM     10  C6  UNK     1       1.049  35.068 235.354  1.00  0.00     0.115 C 
ATOM     11  C8  UNK     1       0.471  36.174 234.530  1.00  0.00     0.025 A 
ATOM     12  C9  UNK     1      -0.279  37.212 235.102  1.00  0.00     0.019 A 
ATOM     13  C10 UNK     1       0.638  36.114 233.139  1.00  0.00     0.016 A 
ATOM     14  C11 UNK     1       2.150  36.481 236.956  1.00  0.00     0.051 A 
ATOM     15  C12 UNK     1       1.242  37.504 237.282  1.00  0.00     0.032 A 
ATOM     16  C13 UNK     1      -0.859  38.179 234.269  1.00  0.00     0.020 A 
ATOM     17  C15 UNK     1       0.063  37.086 232.323  1.00  0.00     0.001 A 
ATOM     18  C16 UNK     1      -0.688  38.115 232.885  1.00  0.00     0.001 A 
ATOM     19  C17 UNK     1       3.505  36.665 237.269  1.00  0.00     0.031 A 
ATOM     20  C18 UNK     1       1.695  38.680 237.898  1.00  0.00     0.021 A 
ATOM     21  C20 UNK     1       3.953  37.839 237.875  1.00  0.00     0.002 A 
ATOM     22  C21 UNK     1       3.046  38.846 238.192  1.00  0.00     0.002 A 
ENDROOT
BRANCH   2  23
ATOM     23  C5  UNK     1       0.614  30.570 232.239  1.00  0.00     0.298 C 
BRANCH  23  24
ATOM     24  C7  UNK     1      -0.165  31.164 231.075  1.00  0.00     0.198 C 
BRANCH  24  25
ATOM     25  O1  UNK     1       0.576  30.963 229.879  1.00  0.00    -0.387 OA
BRANCH  25  26
ATOM     26  C14 UNK     1       0.411  32.046 228.974  1.00  0.00     0.193 C 
BRANCH  26  27
ATOM     27  C19 UNK     1       1.571  32.055 227.998  1.00  0.00     0.190 C 
BRANCH  27  28
ATOM     28  O2  UNK     1       1.626  33.323 227.355  1.00  0.00    -0.399 OA
ATOM     29  H25 UNK     1       2.564  33.548 227.227  1.00  0.00     0.209 HD
ENDBRANCH  27  28
ENDBRANCH  26  27
ENDBRANCH  25  26
ENDBRANCH  24  25
ENDBRANCH  23  24
ENDBRANCH   2  23
TORSDOF 6
ENDMDL
MODEL 6
REMARK VINA RESULT:      -6.0      1.923      2.611
REMARK  6 active torsions:
REMARK  status: ('A' for Active; 'I' for Inactive)
REMARK    1  A    between atoms: O1_2  and  C7_14 
REMARK    2  A    between atoms: O1_2  and  C14_21 
REMARK    3  A    between atoms: O2_3  and  C19_26 
REMARK    4  A    between atoms: N1_4  and  C5_12 
REMARK    5  A    between atoms: C5_12  and  C7_14 
REMARK    6  A    between atoms: C14_21  and  C19_26 
ROOT
ATOM      1  S1  UNK     1      -4.215  36.767 228.123  1.00  0.00    -0.087 SA
ATOM      2  N1  UNK     1      -1.062  37.189 234.304  1.00  0.00     0.093 N 
ATOM      3  N2  UNK     1      -2.325  37.711 231.807  1.00  0.00    -0.363 N 
ATOM      4  N3  UNK     1      -3.521  38.944 230.286  1.00  0.00    -0.341 N 
ATOM      5  H3  UNK     1      -4.002  39.354 231.086  1.00  0.00     0.167 HD
ATOM      6  C1  UNK     1      -1.250  38.570 233.835  1.00  0.00     0.292 C 
ATOM      7  C2  UNK     1      -0.863  36.285 233.162  1.00  0.00     0.292 C 
ATOM      8  C3  UNK     1      -2.457  38.669 232.901  1.00  0.00     0.154 C 
ATOM      9  C4  UNK     1      -2.061  36.333 232.212  1.00  0.00     0.154 C 
ATOM     10  C6  UNK     1      -2.607  38.040 230.525  1.00  0.00     0.115 C 
ATOM     11  C8  UNK     1      -1.828  37.310 229.478  1.00  0.00     0.025 A 
ATOM     12  C9  UNK     1      -2.455  36.662 228.403  1.00  0.00     0.019 A 
ATOM     13  C10 UNK     1      -0.437  37.226 229.633  1.00  0.00     0.016 A 
ATOM     14  C11 UNK     1      -3.887  39.392 229.006  1.00  0.00     0.051 A 
ATOM     15  C12 UNK     1      -4.302  38.545 227.963  1.00  0.00     0.032 A 
ATOM     16  C13 UNK     1      -1.676  35.930 227.496  1.00  0.00     0.020 A 
ATOM     17  C15 UNK     1       0.326  36.502 228.719  1.00  0.00     0.001 A 
ATOM     18  C16 UNK     1      -0.292  35.851 227.654  1.00  0.00     0.001 A 
ATOM     19  C17 UNK     1      -3.939  40.779 228.801  1.00  0.00     0.031 A 
ATOM     20  C18 UNK     1      -4.746  39.086 226.748  1.00  0.00     0.021 A 
ATOM     21  C20 UNK     1      -4.375  41.314 227.589  1.00  0.00     0.002 A 
ATOM     22  C21 UNK     1      -4.781  40.466 226.563  1.00  0.00     0.002 A 
ENDROOT
BRANCH   2  23
ATOM     23  C5  UNK     1       0.071  37.110 235.225  1.00  0.00     0.298 C 
BRANCH  23  24
ATOM     24  C7  UNK     1       1.296  37.786 234.629  1.00  0.00     0.198 C 
BRANCH  24  25
ATOM     25  O1  UNK     1       1.761  38.774 235.540  1.00  0.00    -0.387 OA
BRANCH  25  26
ATOM     26  C14 UNK     1       1.565  38.374 236.889  1.00  0.00     0.193 C 
BRANCH  26  27
ATOM     27  C19 UNK     1       1.331  39.606 237.741  1.00  0.00     0.190 C 
BRANCH  27  28
ATOM     28  O2  UNK     1       0.370  40.437 237.101  1.00  0.00    -0.399 OA
ATOM     29  H25 UNK     1      -0.441  39.914 236.986  1.00  0.00     0.209 HD
ENDBRANCH  27  28
ENDBRANCH  26  27
ENDBRANCH  25  26
ENDBRANCH  24  25
ENDBRANCH  23  24
ENDBRANCH   2  23
TORSDOF 6
ENDMDL
MODEL 7
REMARK VINA RESULT:      -6.0      4.627      9.302
REMARK  6 active torsions:
REMARK  status: ('A' for Active; 'I' for Inactive)
REMARK    1  A    between atoms: O1_2  and  C7_14 
REMARK    2  A    between atoms: O1_2  and  C14_21 
REMARK    3  A    between atoms: O2_3  and  C19_26 
REMARK    4  A    between atoms: N1_4  and  C5_12 
REMARK    5  A    between atoms: C5_12  and  C7_14 
REMARK    6  A    between atoms: C14_21  and  C19_26 
ROOT
ATOM      1  S1  UNK     1       2.282  34.879 238.524  1.00  0.00    -0.087 SA
ATOM      2  N1  UNK     1      -0.384  36.209 232.242  1.00  0.00     0.093 N 
ATOM      3  N2  UNK     1       0.875  36.340 234.792  1.00  0.00    -0.363 N 
ATOM      4  N3  UNK     1       2.306  37.180 236.377  1.00  0.00    -0.341 N 
ATOM      5  H3  UNK     1       2.913  37.445 235.602  1.00  0.00     0.167 HD
ATOM      6  C1  UNK     1       0.163  37.479 232.743  1.00  0.00     0.292 C 
ATOM      7  C2  UNK     1      -0.871  35.387 233.359  1.00  0.00     0.292 C 
ATOM      8  C3  UNK     1       1.312  37.231 233.721  1.00  0.00     0.154 C 
ATOM      9  C4  UNK     1       0.255  35.092 234.352  1.00  0.00     0.154 C 
ATOM     10  C6  UNK     1       1.187  36.567 236.089  1.00  0.00     0.115 C 
ATOM     11  C8  UNK     1       0.195  36.075 237.093  1.00  0.00     0.025 A 
ATOM     12  C9  UNK     1       0.574  35.270 238.178  1.00  0.00     0.019 A 
ATOM     13  C10 UNK     1      -1.157  36.383 236.888  1.00  0.00     0.016 A 
ATOM     14  C11 UNK     1       2.731  37.499 237.678  1.00  0.00     0.051 A 
ATOM     15  C12 UNK     1       2.853  36.561 238.719  1.00  0.00     0.032 A 
ATOM     16  C13 UNK     1      -0.412  34.777 239.044  1.00  0.00     0.020 A 
ATOM     17  C15 UNK     1      -2.127  35.893 237.760  1.00  0.00     0.001 A 
ATOM     18  C16 UNK     1      -1.756  35.088 238.834  1.00  0.00     0.001 A 
ATOM     19  C17 UNK     1       3.158  38.815 237.909  1.00  0.00     0.031 A 
ATOM     20  C18 UNK     1       3.382  36.948 239.959  1.00  0.00     0.021 A 
ATOM     21  C20 UNK     1       3.677  39.198 239.146  1.00  0.00     0.002 A 
ATOM     22  C21 UNK     1       3.791  38.263 240.170  1.00  0.00     0.002 A 
ENDROOT
BRANCH   2  23
ATOM     23  C5  UNK     1      -1.456  36.455 231.280  1.00  0.00     0.298 C 
BRANCH  23  24
ATOM     24  C7  UNK     1      -1.267  37.802 230.599  1.00  0.00     0.198 C 
BRANCH  24  25
ATOM     25  O1  UNK     1      -0.535  37.606 229.395  1.00  0.00    -0.387 OA
BRANCH  25  26
ATOM     26  C14 UNK     1      -0.991  36.462 228.687  1.00  0.00     0.193 C 
BRANCH  26  27
ATOM     27  C19 UNK     1       0.200  35.756 228.070  1.00  0.00     0.190 C 
BRANCH  27  28
ATOM     28  O2  UNK     1       1.281  35.776 228.994  1.00  0.00    -0.399 OA
ATOM     29  H25 UNK     1       0.908  35.919 229.880  1.00  0.00     0.209 HD
ENDBRANCH  27  28
ENDBRANCH  26  27
ENDBRANCH  25  26
ENDBRANCH  24  25
ENDBRANCH  23  24
ENDBRANCH   2  23
TORSDOF 6
ENDMDL
MODEL 8
REMARK VINA RESULT:      -6.0      4.233      8.785
REMARK  6 active torsions:
REMARK  status: ('A' for Active; 'I' for Inactive)
REMARK    1  A    between atoms: O1_2  and  C7_14 
REMARK    2  A    between atoms: O1_2  and  C14_21 
REMARK    3  A    between atoms: O2_3  and  C19_26 
REMARK    4  A    between atoms: N1_4  and  C5_12 
REMARK    5  A    between atoms: C5_12  and  C7_14 
REMARK    6  A    between atoms: C14_21  and  C19_26 
ROOT
ATOM      1  S1  UNK     1       1.821  34.935 238.415  1.00  0.00    -0.087 SA
ATOM      2  N1  UNK     1      -0.460  35.900 231.919  1.00  0.00     0.093 N 
ATOM      3  N2  UNK     1       0.686  36.165 234.511  1.00  0.00    -0.363 N 
ATOM      4  N3  UNK     1       2.094  37.044 236.095  1.00  0.00    -0.341 N 
ATOM      5  H3  UNK     1       2.752  37.207 235.333  1.00  0.00     0.167 HD
ATOM      6  C1  UNK     1       0.144  37.172 232.344  1.00  0.00     0.292 C 
ATOM      7  C2  UNK     1      -1.051  35.205 233.072  1.00  0.00     0.292 C 
ATOM      8  C3  UNK     1       1.228  36.936 233.396  1.00  0.00     0.154 C 
ATOM      9  C4  UNK     1       0.006  34.926 234.141  1.00  0.00     0.154 C 
ATOM     10  C6  UNK     1       0.952  36.480 235.800  1.00  0.00     0.115 C 
ATOM     11  C8  UNK     1      -0.115  36.135 236.788  1.00  0.00     0.025 A 
ATOM     12  C9  UNK     1       0.160  35.401 237.952  1.00  0.00     0.019 A 
ATOM     13  C10 UNK     1      -1.433  36.507 236.490  1.00  0.00     0.016 A 
ATOM     14  C11 UNK     1       2.479  37.443 237.386  1.00  0.00     0.051 A 
ATOM     15  C12 UNK     1       2.491  36.590 238.504  1.00  0.00     0.032 A 
ATOM     16  C13 UNK     1      -0.895  35.042 238.803  1.00  0.00     0.020 A 
ATOM     17  C15 UNK     1      -2.472  36.151 237.348  1.00  0.00     0.001 A 
ATOM     18  C16 UNK     1      -2.205  35.417 238.501  1.00  0.00     0.001 A 
ATOM     19  C17 UNK     1       2.980  38.745 237.533  1.00  0.00     0.031 A 
ATOM     20  C18 UNK     1       2.987  37.045 239.734  1.00  0.00     0.021 A 
ATOM     21  C20 UNK     1       3.465  39.197 238.760  1.00  0.00     0.002 A 
ATOM     22  C21 UNK     1       3.471  38.345 239.860  1.00  0.00     0.002 A 
ENDROOT
BRANCH   2  23
ATOM     23  C5  UNK     1      -1.469  36.131 230.886  1.00  0.00     0.298 C 
BRANCH  23  24
ATOM     24  C7  UNK     1      -1.628  37.619 230.615  1.00  0.00     0.198 C 
BRANCH  24  25
ATOM     25  O1  UNK     1      -3.015  37.925 230.546  1.00  0.00    -0.387 OA
BRANCH  25  26
ATOM     26  C14 UNK     1      -3.353  39.011 231.398  1.00  0.00     0.193 C 
BRANCH  26  27
ATOM     27  C19 UNK     1      -3.090  38.610 232.837  1.00  0.00     0.190 C 
BRANCH  27  28
ATOM     28  O2  UNK     1      -2.136  39.502 233.400  1.00  0.00    -0.399 OA
ATOM     29  H25 UNK     1      -1.343  38.985 233.620  1.00  0.00     0.209 HD
ENDBRANCH  27  28
ENDBRANCH  26  27
ENDBRANCH  25  26
ENDBRANCH  24  25
ENDBRANCH  23  24
ENDBRANCH   2  23
TORSDOF 6
ENDMDL
MODEL 9
REMARK VINA RESULT:      -5.9      2.348      3.268
REMARK  6 active torsions:
REMARK  status: ('A' for Active; 'I' for Inactive)
REMARK    1  A    between atoms: O1_2  and  C7_14 
REMARK    2  A    between atoms: O1_2  and  C14_21 
REMARK    3  A    between atoms: O2_3  and  C19_26 
REMARK    4  A    between atoms: N1_4  and  C5_12 
REMARK    5  A    between atoms: C5_12  and  C7_14 
REMARK    6  A    between atoms: C14_21  and  C19_26 
ROOT
ATOM      1  S1  UNK     1      -3.384  37.202 229.994  1.00  0.00    -0.087 SA
ATOM      2  N1  UNK     1       0.919  36.393 235.395  1.00  0.00     0.093 N 
ATOM      3  N2  UNK     1      -0.593  37.374 233.192  1.00  0.00    -0.363 N 
ATOM      4  N3  UNK     1      -1.625  38.974 231.912  1.00  0.00    -0.341 N 
ATOM      5  H3  UNK     1      -1.784  39.483 232.781  1.00  0.00     0.167 HD
ATOM      6  C1  UNK     1       1.080  37.781 234.936  1.00  0.00     0.292 C 
ATOM      7  C2  UNK     1       0.592  35.515 234.262  1.00  0.00     0.292 C 
ATOM      8  C3  UNK     1      -0.198  38.285 234.263  1.00  0.00     0.154 C 
ATOM      9  C4  UNK     1      -0.696  35.968 233.574  1.00  0.00     0.154 C 
ATOM     10  C6  UNK     1      -1.010  37.822 231.986  1.00  0.00     0.115 C 
ATOM     11  C8  UNK     1      -0.725  36.926 230.823  1.00  0.00     0.025 A 
ATOM     12  C9  UNK     1      -1.725  36.545 229.916  1.00  0.00     0.019 A 
ATOM     13  C10 UNK     1       0.572  36.409 230.695  1.00  0.00     0.016 A 
ATOM     14  C11 UNK     1      -2.083  39.561 230.720  1.00  0.00     0.051 A 
ATOM     15  C12 UNK     1      -2.942  38.924 229.807  1.00  0.00     0.032 A 
ATOM     16  C13 UNK     1      -1.412  35.642 228.890  1.00  0.00     0.020 A 
ATOM     17  C15 UNK     1       0.872  35.518 229.666  1.00  0.00     0.001 A 
ATOM     18  C16 UNK     1      -0.119  35.132 228.767  1.00  0.00     0.001 A 
ATOM     19  C17 UNK     1      -1.740  40.902 230.492  1.00  0.00     0.031 A 
ATOM     20  C18 UNK     1      -3.431  39.622 228.692  1.00  0.00     0.021 A 
ATOM     21  C20 UNK     1      -2.222  41.591 229.378  1.00  0.00     0.002 A 
ATOM     22  C21 UNK     1      -3.070  40.950 228.479  1.00  0.00     0.002 A 
ENDROOT
BRANCH   2  23
ATOM     23  C5  UNK     1       2.131  35.932 236.070  1.00  0.00     0.298 C 
BRANCH  23  24
ATOM     24  C7  UNK     1       1.901  35.820 237.569  1.00  0.00     0.198 C 
BRANCH  24  25
ATOM     25  O1  UNK     1       3.057  36.296 238.246  1.00  0.00    -0.387 OA
BRANCH  25  26
ATOM     26  C14 UNK     1       3.569  37.475 237.639  1.00  0.00     0.193 C 
BRANCH  26  27
ATOM     27  C19 UNK     1       3.020  38.685 238.370  1.00  0.00     0.190 C 
BRANCH  27  28
ATOM     28  O2  UNK     1       4.105  39.489 238.817  1.00  0.00    -0.399 OA
ATOM     29  H25 UNK     1       3.775  40.398 238.919  1.00  0.00     0.209 HD
ENDBRANCH  27  28
ENDBRANCH  26  27
ENDBRANCH  25  26
ENDBRANCH  24  25
ENDBRANCH  23  24
ENDBRANCH   2  23
TORSDOF 6
ENDMDL
