MODEL 1
REMARK VINA RESULT:      -8.7      0.000      0.000
REMARK  4 active torsions:
REMARK  status: ('A' for Active; 'I' for Inactive)
REMARK    1  A    between atoms: N1_4  and  C6_15 
REMARK    2  A    between atoms: C1_10  and  C7_16 
REMARK    3  A    between atoms: C6_15  and  C8_17 
REMARK    4  A    between atoms: C8_17  and  C9_18 
ROOT
ATOM      1  N1  UNK     1      -1.306  36.957 233.122  1.00  0.00     0.088 N 
ATOM      2  C1  UNK     1      -1.661  39.365 231.483  1.00  0.00     0.042 C 
ATOM      3  C2  UNK     1      -0.971  38.098 230.951  1.00  0.00     0.041 C 
ATOM      4  C3  UNK     1      -2.621  38.995 232.626  1.00  0.00     0.041 C 
ATOM      5  C4  UNK     1      -0.322  37.301 232.085  1.00  0.00     0.273 C 
ATOM      6  C5  UNK     1      -1.912  38.165 233.699  1.00  0.00     0.273 C 
ENDROOT
BRANCH   1   7
ATOM      7  C6  UNK     1      -0.683  36.147 234.169  1.00  0.00     0.277 C 
BRANCH   7   8
ATOM      8  C8  UNK     1       0.832  36.197 234.029  1.00  0.00     0.076 C 
BRANCH   8   9
ATOM      9  C9  UNK     1       1.492  36.271 235.376  1.00  0.00     0.034 A 
ATOM     10  C16 UNK     1       1.793  37.647 235.880  1.00  0.00     0.257 A 
ATOM     11  O2  UNK     1       1.508  38.631 235.197  1.00  0.00    -0.267 OA
ATOM     12  N2  UNK     1       2.411  37.699 237.132  1.00  0.00    -0.303 N 
ATOM     13  C11 UNK     1       2.803  39.025 237.622  1.00  0.00     0.133 C 
ATOM     14  C13 UNK     1       2.747  36.536 237.800  1.00  0.00     0.086 A 
ATOM     15  C12 UNK     1       3.126  39.084 239.104  1.00  0.00     0.021 C 
ATOM     16  C14 UNK     1       4.076  37.956 239.449  1.00  0.00     0.009 C 
ATOM     17  C15 UNK     1       3.391  36.633 239.171  1.00  0.00     0.077 C 
ATOM     18  N4  UNK     1       2.492  35.345 237.357  1.00  0.00    -0.349 N 
ATOM     19  C17 UNK     1       1.859  35.226 236.144  1.00  0.00     0.018 A 
ATOM     20  H4  UNK     1       2.753  34.519 237.895  1.00  0.00     0.167 HD
ATOM     21  C20 UNK     1       1.585  33.795 235.763  1.00  0.00     0.069 C 
ENDBRANCH   8   9
ENDBRANCH   7   8
ENDBRANCH   1   7
BRANCH   2  22
ATOM     22  C7  UNK     1      -2.334  40.165 230.391  1.00  0.00     0.050 A 
ATOM     23  N3  UNK     1      -3.653  40.074 230.235  1.00  0.00    -0.264 N 
ATOM     24  O1  UNK     1      -3.946  40.915 229.169  1.00  0.00    -0.237 OA
ATOM     25  H3  UNK     1      -4.305  39.509 230.778  1.00  0.00     0.194 HD
ATOM     26  C18 UNK     1      -2.797  41.487 228.714  1.00  0.00     0.114 A 
ATOM     27  C10 UNK     1      -1.730  41.034 229.471  1.00  0.00     0.025 A 
ATOM     28  C21 UNK     1      -2.684  42.386 227.658  1.00  0.00     0.082 A 
ATOM     29  C19 UNK     1      -0.440  41.497 229.174  1.00  0.00     0.019 A 
ATOM     30  C22 UNK     1      -0.289  42.406 228.116  1.00  0.00     0.043 A 
ATOM     31  C23 UNK     1      -1.392  42.840 227.373  1.00  0.00     0.119 A 
ATOM     32  F1  UNK     1      -1.208  43.707 226.369  1.00  0.00    -0.206 F 
ENDBRANCH   2  22
TORSDOF 4
ENDMDL
MODEL 2
REMARK VINA RESULT:      -8.0      3.584      9.246
REMARK  4 active torsions:
REMARK  status: ('A' for Active; 'I' for Inactive)
REMARK    1  A    between atoms: N1_4  and  C6_15 
REMARK    2  A    between atoms: C1_10  and  C7_16 
REMARK    3  A    between atoms: C6_15  and  C8_17 
REMARK    4  A    between atoms: C8_17  and  C9_18 
ROOT
ATOM      1  N1  UNK     1      -2.634  39.023 229.538  1.00  0.00     0.088 N 
ATOM      2  C1  UNK     1      -1.687  38.483 232.262  1.00  0.00     0.042 C 
ATOM      3  C2  UNK     1      -3.172  38.710 231.934  1.00  0.00     0.041 C 
ATOM      4  C3  UNK     1      -0.950  37.969 231.014  1.00  0.00     0.041 C 
ATOM      5  C4  UNK     1      -3.339  39.594 230.695  1.00  0.00     0.273 C 
ATOM      6  C5  UNK     1      -1.197  38.880 229.809  1.00  0.00     0.273 C 
ENDROOT
BRANCH   1   7
ATOM      7  C6  UNK     1      -2.851  39.849 228.350  1.00  0.00     0.277 C 
BRANCH   7   8
ATOM      8  C8  UNK     1      -3.186  41.274 228.765  1.00  0.00     0.076 C 
BRANCH   8   9
ATOM      9  C9  UNK     1      -2.089  42.220 228.367  1.00  0.00     0.034 A 
ATOM     10  C16 UNK     1      -1.079  42.530 229.427  1.00  0.00     0.257 A 
ATOM     11  O2  UNK     1      -1.184  42.025 230.545  1.00  0.00    -0.267 OA
ATOM     12  N2  UNK     1      -0.068  43.414 229.044  1.00  0.00    -0.303 N 
ATOM     13  C11 UNK     1       0.891  43.812 230.080  1.00  0.00     0.133 C 
ATOM     14  C13 UNK     1      -0.067  43.977 227.781  1.00  0.00     0.086 A 
ATOM     15  C12 UNK     1       2.158  44.462 229.556  1.00  0.00     0.021 C 
ATOM     16  C14 UNK     1       1.786  45.544 228.564  1.00  0.00     0.009 C 
ATOM     17  C15 UNK     1       1.064  44.911 227.392  1.00  0.00     0.077 C 
ATOM     18  N4  UNK     1      -0.947  43.713 226.868  1.00  0.00    -0.349 N 
ATOM     19  C17 UNK     1      -1.952  42.828 227.173  1.00  0.00     0.018 A 
ATOM     20  H4  UNK     1      -0.895  44.150 225.948  1.00  0.00     0.167 HD
ATOM     21  C20 UNK     1      -2.884  42.577 226.016  1.00  0.00     0.069 C 
ENDBRANCH   8   9
ENDBRANCH   7   8
ENDBRANCH   1   7
BRANCH   2  22
ATOM     22  C7  UNK     1      -1.486  37.593 233.468  1.00  0.00     0.050 A 
ATOM     23  N3  UNK     1      -2.499  36.848 233.904  1.00  0.00    -0.264 N 
ATOM     24  O1  UNK     1      -1.993  36.164 235.001  1.00  0.00    -0.237 OA
ATOM     25  H3  UNK     1      -3.441  36.792 233.517  1.00  0.00     0.194 HD
ATOM     26  C18 UNK     1      -0.693  36.517 235.195  1.00  0.00     0.114 A 
ATOM     27  C10 UNK     1      -0.320  37.437 234.230  1.00  0.00     0.025 A 
ATOM     28  C21 UNK     1       0.150  36.045 236.197  1.00  0.00     0.082 A 
ATOM     29  C19 UNK     1       0.989  37.942 234.241  1.00  0.00     0.019 A 
ATOM     30  C22 UNK     1       1.867  37.487 235.236  1.00  0.00     0.043 A 
ATOM     31  C23 UNK     1       1.453  36.556 236.194  1.00  0.00     0.119 A 
ATOM     32  F1  UNK     1       2.320  36.146 237.130  1.00  0.00    -0.206 F 
ENDBRANCH   2  22
TORSDOF 4
ENDMDL
MODEL 3
REMARK VINA RESULT:      -7.9      7.479     12.705
REMARK  4 active torsions:
REMARK  status: ('A' for Active; 'I' for Inactive)
REMARK    1  A    between atoms: N1_4  and  C6_15 
REMARK    2  A    between atoms: C1_10  and  C7_16 
REMARK    3  A    between atoms: C6_15  and  C8_17 
REMARK    4  A    between atoms: C8_17  and  C9_18 
ROOT
ATOM      1  N1  UNK     1      -3.606  42.463 226.845  1.00  0.00     0.088 N 
ATOM      2  C1  UNK     1      -0.981  42.611 228.148  1.00  0.00     0.042 C 
ATOM      3  C2  UNK     1      -1.380  43.537 226.987  1.00  0.00     0.041 C 
ATOM      4  C3  UNK     1      -2.241  42.122 228.881  1.00  0.00     0.041 C 
ATOM      5  C4  UNK     1      -2.420  42.874 226.080  1.00  0.00     0.273 C 
ATOM      6  C5  UNK     1      -3.249  41.511 227.905  1.00  0.00     0.273 C 
ENDROOT
BRANCH   1   7
ATOM      7  C6  UNK     1      -4.612  41.885 225.955  1.00  0.00     0.277 C 
BRANCH   7   8
ATOM      8  C8  UNK     1      -5.940  42.606 226.138  1.00  0.00     0.076 C 
BRANCH   8   9
ATOM      9  C9  UNK     1      -6.186  43.570 225.013  1.00  0.00     0.034 A 
ATOM     10  C16 UNK     1      -5.854  45.001 225.297  1.00  0.00     0.257 A 
ATOM     11  O2  UNK     1      -5.417  45.326 226.401  1.00  0.00    -0.267 OA
ATOM     12  N2  UNK     1      -6.093  45.887 224.243  1.00  0.00    -0.303 N 
ATOM     13  C11 UNK     1      -5.864  47.311 224.510  1.00  0.00     0.133 C 
ATOM     14  C13 UNK     1      -6.642  45.436 223.056  1.00  0.00     0.086 A 
ATOM     15  C12 UNK     1      -5.777  48.182 223.271  1.00  0.00     0.021 C 
ATOM     16  C14 UNK     1      -6.948  47.871 222.363  1.00  0.00     0.009 C 
ATOM     17  C15 UNK     1      -6.860  46.424 221.924  1.00  0.00     0.077 C 
ATOM     18  N4  UNK     1      -6.936  44.198 222.817  1.00  0.00    -0.349 N 
ATOM     19  C17 UNK     1      -6.699  43.272 223.803  1.00  0.00     0.018 A 
ATOM     20  H4  UNK     1      -7.332  43.917 221.920  1.00  0.00     0.167 HD
ATOM     21  C20 UNK     1      -7.045  41.867 223.385  1.00  0.00     0.069 C 
ENDBRANCH   8   9
ENDBRANCH   7   8
ENDBRANCH   1   7
BRANCH   2  22
ATOM     22  C7  UNK     1       0.029  43.244 229.079  1.00  0.00     0.050 A 
ATOM     23  N3  UNK     1      -0.398  44.030 230.065  1.00  0.00    -0.264 N 
ATOM     24  O1  UNK     1       0.757  44.440 230.719  1.00  0.00    -0.237 OA
ATOM     25  H3  UNK     1      -1.361  44.276 230.291  1.00  0.00     0.194 HD
ATOM     26  C18 UNK     1       1.843  43.892 230.109  1.00  0.00     0.114 A 
ATOM     27  C10 UNK     1       1.424  43.112 229.045  1.00  0.00     0.025 A 
ATOM     28  C21 UNK     1       3.173  44.072 230.474  1.00  0.00     0.082 A 
ATOM     29  C19 UNK     1       2.385  42.447 228.268  1.00  0.00     0.019 A 
ATOM     30  C22 UNK     1       3.736  42.605 228.609  1.00  0.00     0.043 A 
ATOM     31  C23 UNK     1       4.121  43.403 229.691  1.00  0.00     0.119 A 
ATOM     32  F1  UNK     1       5.422  43.530 229.986  1.00  0.00    -0.206 F 
ENDBRANCH   2  22
TORSDOF 4
ENDMDL
MODEL 4
REMARK VINA RESULT:      -7.9      3.553      8.907
REMARK  4 active torsions:
REMARK  status: ('A' for Active; 'I' for Inactive)
REMARK    1  A    between atoms: N1_4  and  C6_15 
REMARK    2  A    between atoms: C1_10  and  C7_16 
REMARK    3  A    between atoms: C6_15  and  C8_17 
REMARK    4  A    between atoms: C8_17  and  C9_18 
ROOT
ATOM      1  N1  UNK     1      -0.275  37.083 232.071  1.00  0.00     0.088 N 
ATOM      2  C1  UNK     1       0.615  37.401 234.849  1.00  0.00     0.042 C 
ATOM      3  C2  UNK     1       1.554  37.619 233.651  1.00  0.00     0.041 C 
ATOM      4  C3  UNK     1      -0.843  37.631 234.418  1.00  0.00     0.041 C 
ATOM      5  C4  UNK     1       1.116  36.787 232.443  1.00  0.00     0.273 C 
ATOM      6  C5  UNK     1      -1.194  36.798 233.182  1.00  0.00     0.273 C 
ENDROOT
BRANCH   1   7
ATOM      7  C6  UNK     1      -0.659  36.322 230.882  1.00  0.00     0.277 C 
BRANCH   7   8
ATOM      8  C8  UNK     1      -1.860  36.978 230.214  1.00  0.00     0.076 C 
BRANCH   8   9
ATOM      9  C9  UNK     1      -1.667  38.464 230.107  1.00  0.00     0.034 A 
ATOM     10  C16 UNK     1      -0.516  38.912 229.262  1.00  0.00     0.257 A 
ATOM     11  O2  UNK     1       0.207  38.081 228.713  1.00  0.00    -0.267 OA
ATOM     12  N2  UNK     1      -0.346  40.296 229.175  1.00  0.00    -0.303 N 
ATOM     13  C11 UNK     1       0.822  40.775 228.429  1.00  0.00     0.133 C 
ATOM     14  C13 UNK     1      -1.176  41.152 229.876  1.00  0.00     0.086 A 
ATOM     15  C12 UNK     1       0.775  42.243 228.049  1.00  0.00     0.021 C 
ATOM     16  C14 UNK     1       0.404  43.059 229.270  1.00  0.00     0.009 C 
ATOM     17  C15 UNK     1      -0.978  42.650 229.734  1.00  0.00     0.077 C 
ATOM     18  N4  UNK     1      -2.167  40.760 230.614  1.00  0.00    -0.349 N 
ATOM     19  C17 UNK     1      -2.404  39.412 230.718  1.00  0.00     0.018 A 
ATOM     20  H4  UNK     1      -2.754  41.435 231.104  1.00  0.00     0.167 HD
ATOM     21  C20 UNK     1      -3.605  39.091 231.569  1.00  0.00     0.069 C 
ENDBRANCH   8   9
ENDBRANCH   7   8
ENDBRANCH   1   7
BRANCH   2  22
ATOM     22  C7  UNK     1       1.005  38.228 236.053  1.00  0.00     0.050 A 
ATOM     23  N3  UNK     1       0.301  39.318 236.352  1.00  0.00    -0.264 N 
ATOM     24  O1  UNK     1       0.908  39.835 237.489  1.00  0.00    -0.237 OA
ATOM     25  H3  UNK     1      -0.507  39.690 235.854  1.00  0.00     0.194 HD
ATOM     26  C18 UNK     1       1.958  39.045 237.841  1.00  0.00     0.114 A 
ATOM     27  C10 UNK     1       2.062  37.995 236.945  1.00  0.00     0.025 A 
ATOM     28  C21 UNK     1       2.811  39.239 238.924  1.00  0.00     0.082 A 
ATOM     29  C19 UNK     1       3.084  37.050 237.119  1.00  0.00     0.019 A 
ATOM     30  C22 UNK     1       3.961  37.214 238.201  1.00  0.00     0.043 A 
ATOM     31  C23 UNK     1       3.825  38.289 239.085  1.00  0.00     0.119 A 
ATOM     32  F1  UNK     1       4.683  38.413 240.107  1.00  0.00    -0.206 F 
ENDBRANCH   2  22
TORSDOF 4
ENDMDL
MODEL 5
REMARK VINA RESULT:      -7.8      3.359     10.353
REMARK  4 active torsions:
REMARK  status: ('A' for Active; 'I' for Inactive)
REMARK    1  A    between atoms: N1_4  and  C6_15 
REMARK    2  A    between atoms: C1_10  and  C7_16 
REMARK    3  A    between atoms: C6_15  and  C8_17 
REMARK    4  A    between atoms: C8_17  and  C9_18 
ROOT
ATOM      1  N1  UNK     1      -1.407  37.654 231.203  1.00  0.00     0.088 N 
ATOM      2  C1  UNK     1       0.451  37.325 233.451  1.00  0.00     0.042 C 
ATOM      3  C2  UNK     1      -1.048  37.604 233.652  1.00  0.00     0.041 C 
ATOM      4  C3  UNK     1       0.678  36.653 232.087  1.00  0.00     0.041 C 
ATOM      5  C4  UNK     1      -1.634  38.372 232.465  1.00  0.00     0.273 C 
ATOM      6  C5  UNK     1       0.029  37.456 230.957  1.00  0.00     0.273 C 
ENDROOT
BRANCH   1   7
ATOM      7  C6  UNK     1      -2.023  38.372 230.088  1.00  0.00     0.277 C 
BRANCH   7   8
ATOM      8  C8  UNK     1      -2.626  39.679 230.584  1.00  0.00     0.076 C 
BRANCH   8   9
ATOM      9  C9  UNK     1      -2.797  40.653 229.454  1.00  0.00     0.034 A 
ATOM     10  C16 UNK     1      -4.120  40.617 228.757  1.00  0.00     0.257 A 
ATOM     11  O2  UNK     1      -4.985  39.817 229.115  1.00  0.00    -0.267 OA
ATOM     12  N2  UNK     1      -4.263  41.524 227.705  1.00  0.00    -0.303 N 
ATOM     13  C11 UNK     1      -5.513  41.461 226.940  1.00  0.00     0.133 C 
ATOM     14  C13 UNK     1      -3.212  42.345 227.336  1.00  0.00     0.086 A 
ATOM     15  C12 UNK     1      -5.784  42.671 226.066  1.00  0.00     0.021 C 
ATOM     16  C14 UNK     1      -4.543  42.989 225.259  1.00  0.00     0.009 C 
ATOM     17  C15 UNK     1      -3.415  43.339 226.207  1.00  0.00     0.077 C 
ATOM     18  N4  UNK     1      -2.064  42.368 227.936  1.00  0.00    -0.349 N 
ATOM     19  C17 UNK     1      -1.870  41.519 228.998  1.00  0.00     0.018 A 
ATOM     20  H4  UNK     1      -1.325  43.000 227.629  1.00  0.00     0.167 HD
ATOM     21  C20 UNK     1      -0.512  41.671 229.632  1.00  0.00     0.069 C 
ENDBRANCH   8   9
ENDBRANCH   7   8
ENDBRANCH   1   7
BRANCH   2  22
ATOM     22  C7  UNK     1       1.058  36.545 234.595  1.00  0.00     0.050 A 
ATOM     23  N3  UNK     1       0.884  35.227 234.650  1.00  0.00    -0.264 N 
ATOM     24  O1  UNK     1       1.553  34.825 235.798  1.00  0.00    -0.237 OA
ATOM     25  H3  UNK     1       0.370  34.640 233.992  1.00  0.00     0.194 HD
ATOM     26  C18 UNK     1       2.110  35.911 236.402  1.00  0.00     0.114 A 
ATOM     27  C10 UNK     1       1.818  37.045 235.662  1.00  0.00     0.025 A 
ATOM     28  C21 UNK     1       2.857  35.911 237.576  1.00  0.00     0.082 A 
ATOM     29  C19 UNK     1       2.295  38.287 236.105  1.00  0.00     0.019 A 
ATOM     30  C22 UNK     1       3.053  38.324 237.284  1.00  0.00     0.043 A 
ATOM     31  C23 UNK     1       3.327  37.157 238.004  1.00  0.00     0.119 A 
ATOM     32  F1  UNK     1       4.054  37.232 239.128  1.00  0.00    -0.206 F 
ENDBRANCH   2  22
TORSDOF 4
ENDMDL
MODEL 6
REMARK VINA RESULT:      -7.7      7.439     11.132
REMARK  4 active torsions:
REMARK  status: ('A' for Active; 'I' for Inactive)
REMARK    1  A    between atoms: N1_4  and  C6_15 
REMARK    2  A    between atoms: C1_10  and  C7_16 
REMARK    3  A    between atoms: C6_15  and  C8_17 
REMARK    4  A    between atoms: C8_17  and  C9_18 
ROOT
ATOM      1  N1  UNK     1      -3.261  42.638 226.678  1.00  0.00     0.088 N 
ATOM      2  C1  UNK     1      -0.734  42.724 228.168  1.00  0.00     0.042 C 
ATOM      3  C2  UNK     1      -1.009  43.628 226.954  1.00  0.00     0.041 C 
ATOM      4  C3  UNK     1      -2.064  42.308 228.819  1.00  0.00     0.041 C 
ATOM      5  C4  UNK     1      -2.006  42.978 225.992  1.00  0.00     0.273 C 
ATOM      6  C5  UNK     1      -3.022  41.706 227.789  1.00  0.00     0.273 C 
ENDROOT
BRANCH   1   7
ATOM      7  C6  UNK     1      -4.223  42.072 225.733  1.00  0.00     0.277 C 
BRANCH   7   8
ATOM      8  C8  UNK     1      -5.639  42.265 226.257  1.00  0.00     0.076 C 
BRANCH   8   9
ATOM      9  C9  UNK     1      -6.477  41.046 225.996  1.00  0.00     0.034 A 
ATOM     10  C16 UNK     1      -6.548  40.052 227.113  1.00  0.00     0.257 A 
ATOM     11  O2  UNK     1      -5.935  40.257 228.161  1.00  0.00    -0.267 OA
ATOM     12  N2  UNK     1      -7.326  38.922 226.854  1.00  0.00    -0.303 N 
ATOM     13  C11 UNK     1      -7.351  37.883 227.889  1.00  0.00     0.133 C 
ATOM     14  C13 UNK     1      -7.931  38.752 225.621  1.00  0.00     0.086 A 
ATOM     15  C12 UNK     1      -8.468  36.867 227.741  1.00  0.00     0.021 C 
ATOM     16  C14 UNK     1      -8.495  36.363 226.314  1.00  0.00     0.009 C 
ATOM     17  C15 UNK     1      -8.793  37.524 225.387  1.00  0.00     0.077 C 
ATOM     18  N4  UNK     1      -7.861  39.610 224.654  1.00  0.00    -0.349 N 
ATOM     19  C17 UNK     1      -7.133  40.757 224.856  1.00  0.00     0.018 A 
ATOM     20  H4  UNK     1      -8.334  39.439 223.766  1.00  0.00     0.167 HD
ATOM     21  C20 UNK     1      -7.164  41.687 223.672  1.00  0.00     0.069 C 
ENDBRANCH   8   9
ENDBRANCH   7   8
ENDBRANCH   1   7
BRANCH   2  22
ATOM     22  C7  UNK     1       0.230  43.346 229.152  1.00  0.00     0.050 A 
ATOM     23  N3  UNK     1      -0.243  44.120 230.127  1.00  0.00    -0.264 N 
ATOM     24  O1  UNK     1       0.879  44.523 230.839  1.00  0.00    -0.237 OA
ATOM     25  H3  UNK     1      -1.217  44.364 230.310  1.00  0.00     0.194 HD
ATOM     26  C18 UNK     1       1.993  43.983 230.275  1.00  0.00     0.114 A 
ATOM     27  C10 UNK     1       1.625  43.214 229.183  1.00  0.00     0.025 A 
ATOM     28  C21 UNK     1       3.305  44.158 230.705  1.00  0.00     0.082 A 
ATOM     29  C19 UNK     1       2.622  42.559 228.445  1.00  0.00     0.019 A 
ATOM     30  C22 UNK     1       3.956  42.713 228.851  1.00  0.00     0.043 A 
ATOM     31  C23 UNK     1       4.288  43.498 229.959  1.00  0.00     0.119 A 
ATOM     32  F1  UNK     1       5.574  43.622 230.316  1.00  0.00    -0.206 F 
ENDBRANCH   2  22
TORSDOF 4
ENDMDL
MODEL 7
REMARK VINA RESULT:      -7.7      6.840      9.317
REMARK  4 active torsions:
REMARK  status: ('A' for Active; 'I' for Inactive)
REMARK    1  A    between atoms: N1_4  and  C6_15 
REMARK    2  A    between atoms: C1_10  and  C7_16 
REMARK    3  A    between atoms: C6_15  and  C8_17 
REMARK    4  A    between atoms: C8_17  and  C9_18 
ROOT
ATOM      1  N1  UNK     1      -3.318  41.554 227.600  1.00  0.00     0.088 N 
ATOM      2  C1  UNK     1      -0.726  42.827 228.120  1.00  0.00     0.042 C 
ATOM      3  C2  UNK     1      -1.325  41.761 229.053  1.00  0.00     0.041 C 
ATOM      4  C3  UNK     1      -1.292  42.655 226.701  1.00  0.00     0.041 C 
ATOM      5  C4  UNK     1      -2.853  41.754 228.980  1.00  0.00     0.273 C 
ATOM      6  C5  UNK     1      -2.822  42.616 226.714  1.00  0.00     0.273 C 
ENDROOT
BRANCH   1   7
ATOM      7  C6  UNK     1      -4.779  41.493 227.557  1.00  0.00     0.277 C 
BRANCH   7   8
ATOM      8  C8  UNK     1      -5.260  40.178 228.154  1.00  0.00     0.076 C 
BRANCH   8   9
ATOM      9  C9  UNK     1      -4.643  39.009 227.439  1.00  0.00     0.034 A 
ATOM     10  C16 UNK     1      -3.725  38.155 228.256  1.00  0.00     0.257 A 
ATOM     11  O2  UNK     1      -3.511  38.433 229.436  1.00  0.00    -0.267 OA
ATOM     12  N2  UNK     1      -3.156  37.076 227.577  1.00  0.00    -0.303 N 
ATOM     13  C11 UNK     1      -2.183  36.266 228.317  1.00  0.00     0.133 C 
ATOM     14  C13 UNK     1      -3.411  36.877 226.232  1.00  0.00     0.086 A 
ATOM     15  C12 UNK     1      -1.870  34.920 227.691  1.00  0.00     0.021 C 
ATOM     16  C14 UNK     1      -1.568  35.115 226.220  1.00  0.00     0.009 C 
ATOM     17  C15 UNK     1      -2.797  35.677 225.535  1.00  0.00     0.077 C 
ATOM     18  N4  UNK     1      -4.200  37.623 225.525  1.00  0.00    -0.349 N 
ATOM     19  C17 UNK     1      -4.814  38.685 226.142  1.00  0.00     0.018 A 
ATOM     20  H4  UNK     1      -4.361  37.427 224.537  1.00  0.00     0.167 HD
ATOM     21  C20 UNK     1      -5.733  39.447 225.223  1.00  0.00     0.069 C 
ENDBRANCH   8   9
ENDBRANCH   7   8
ENDBRANCH   1   7
BRANCH   2  22
ATOM     22  C7  UNK     1       0.785  42.845 228.149  1.00  0.00     0.050 A 
ATOM     23  N3  UNK     1       1.463  42.314 227.133  1.00  0.00    -0.264 N 
ATOM     24  O1  UNK     1       2.800  42.490 227.464  1.00  0.00    -0.237 OA
ATOM     25  H3  UNK     1       1.082  41.874 226.295  1.00  0.00     0.194 HD
ATOM     26  C18 UNK     1       2.890  43.120 228.667  1.00  0.00     0.114 A 
ATOM     27  C10 UNK     1       1.616  43.370 229.149  1.00  0.00     0.025 A 
ATOM     28  C21 UNK     1       4.062  43.468 229.331  1.00  0.00     0.082 A 
ATOM     29  C19 UNK     1       1.471  44.017 230.385  1.00  0.00     0.019 A 
ATOM     30  C22 UNK     1       2.631  44.383 231.082  1.00  0.00     0.043 A 
ATOM     31  C23 UNK     1       3.902  44.113 230.563  1.00  0.00     0.119 A 
ATOM     32  F1  UNK     1       4.987  44.477 231.258  1.00  0.00    -0.206 F 
ENDBRANCH   2  22
TORSDOF 4
ENDMDL
MODEL 8
REMARK VINA RESULT:      -7.6      5.252      9.905
REMARK  4 active torsions:
REMARK  status: ('A' for Active; 'I' for Inactive)
REMARK    1  A    between atoms: N1_4  and  C6_15 
REMARK    2  A    between atoms: C1_10  and  C7_16 
REMARK    3  A    between atoms: C6_15  and  C8_17 
REMARK    4  A    between atoms: C8_17  and  C9_18 
ROOT
ATOM      1  N1  UNK     1      -0.186  35.152 232.107  1.00  0.00     0.088 N 
ATOM      2  C1  UNK     1       1.260  36.585 234.220  1.00  0.00     0.042 C 
ATOM      3  C2  UNK     1       1.010  37.194 232.831  1.00  0.00     0.041 C 
ATOM      4  C3  UNK     1       0.187  35.526 234.525  1.00  0.00     0.041 C 
ATOM      5  C4  UNK     1       0.877  36.106 231.763  1.00  0.00     0.273 C 
ATOM      6  C5  UNK     1       0.084  34.499 233.395  1.00  0.00     0.273 C 
ENDROOT
BRANCH   1   7
ATOM      7  C6  UNK     1      -0.339  34.153 231.049  1.00  0.00     0.277 C 
BRANCH   7   8
ATOM      8  C8  UNK     1      -1.363  34.631 230.030  1.00  0.00     0.076 C 
BRANCH   8   9
ATOM      9  C9  UNK     1      -0.742  34.766 228.670  1.00  0.00     0.034 A 
ATOM     10  C16 UNK     1      -0.694  33.517 227.847  1.00  0.00     0.257 A 
ATOM     11  O2  UNK     1      -1.141  32.463 228.300  1.00  0.00    -0.267 OA
ATOM     12  N2  UNK     1      -0.109  33.657 226.587  1.00  0.00    -0.303 N 
ATOM     13  C11 UNK     1       0.036  32.438 225.784  1.00  0.00     0.133 C 
ATOM     14  C13 UNK     1       0.419  34.872 226.187  1.00  0.00     0.086 A 
ATOM     15  C12 UNK     1       0.327  32.676 224.315  1.00  0.00     0.021 C 
ATOM     16  C14 UNK     1       1.457  33.677 224.188  1.00  0.00     0.009 C 
ATOM     17  C15 UNK     1       1.021  34.992 224.799  1.00  0.00     0.077 C 
ATOM     18  N4  UNK     1       0.384  35.950 226.905  1.00  0.00    -0.349 N 
ATOM     19  C17 UNK     1      -0.204  35.885 228.144  1.00  0.00     0.018 A 
ATOM     20  H4  UNK     1       0.781  36.823 226.559  1.00  0.00     0.167 HD
ATOM     21  C20 UNK     1      -0.217  37.211 228.858  1.00  0.00     0.069 C 
ENDBRANCH   8   9
ENDBRANCH   7   8
ENDBRANCH   1   7
BRANCH   2  22
ATOM     22  C7  UNK     1       1.372  37.632 235.305  1.00  0.00     0.050 A 
ATOM     23  N3  UNK     1       0.573  38.696 235.269  1.00  0.00    -0.264 N 
ATOM     24  O1  UNK     1       0.925  39.446 236.384  1.00  0.00    -0.237 OA
ATOM     25  H3  UNK     1      -0.142  38.913 234.574  1.00  0.00     0.194 HD
ATOM     26  C18 UNK     1       1.925  38.814 237.057  1.00  0.00     0.114 A 
ATOM     27  C10 UNK     1       2.247  37.639 236.400  1.00  0.00     0.025 A 
ATOM     28  C21 UNK     1       2.543  39.256 238.223  1.00  0.00     0.082 A 
ATOM     29  C19 UNK     1       3.261  36.822 236.924  1.00  0.00     0.019 A 
ATOM     30  C22 UNK     1       3.905  37.237 238.099  1.00  0.00     0.043 A 
ATOM     31  C23 UNK     1       3.551  38.432 238.734  1.00  0.00     0.119 A 
ATOM     32  F1  UNK     1       4.190  38.795 239.854  1.00  0.00    -0.206 F 
ENDBRANCH   2  22
TORSDOF 4
ENDMDL
MODEL 9
REMARK VINA RESULT:      -7.5      3.292      9.921
REMARK  4 active torsions:
REMARK  status: ('A' for Active; 'I' for Inactive)
REMARK    1  A    between atoms: N1_4  and  C6_15 
REMARK    2  A    between atoms: C1_10  and  C7_16 
REMARK    3  A    between atoms: C6_15  and  C8_17 
REMARK    4  A    between atoms: C8_17  and  C9_18 
ROOT
ATOM      1  N1  UNK     1      -1.269  36.734 231.603  1.00  0.00     0.088 N 
ATOM      2  C1  UNK     1       0.271  36.921 234.093  1.00  0.00     0.042 C 
ATOM      3  C2  UNK     1      -1.075  36.182 234.008  1.00  0.00     0.041 C 
ATOM      4  C3  UNK     1       0.936  36.955 232.707  1.00  0.00     0.041 C 
ATOM      5  C4  UNK     1      -1.958  36.764 232.901  1.00  0.00     0.273 C 
ATOM      6  C5  UNK     1      -0.020  37.508 231.647  1.00  0.00     0.273 C 
ENDROOT
BRANCH   1   7
ATOM      7  C6  UNK     1      -2.146  37.239 230.547  1.00  0.00     0.277 C 
BRANCH   7   8
ATOM      8  C8  UNK     1      -2.754  38.568 230.971  1.00  0.00     0.076 C 
BRANCH   8   9
ATOM      9  C9  UNK     1      -3.123  39.395 229.773  1.00  0.00     0.034 A 
ATOM     10  C16 UNK     1      -2.245  40.575 229.499  1.00  0.00     0.257 A 
ATOM     11  O2  UNK     1      -1.293  40.822 230.241  1.00  0.00    -0.267 OA
ATOM     12  N2  UNK     1      -2.604  41.337 228.385  1.00  0.00    -0.303 N 
ATOM     13  C11 UNK     1      -1.821  42.552 228.133  1.00  0.00     0.133 C 
ATOM     14  C13 UNK     1      -3.726  41.015 227.644  1.00  0.00     0.086 A 
ATOM     15  C12 UNK     1      -1.992  43.141 226.746  1.00  0.00     0.021 C 
ATOM     16  C14 UNK     1      -3.469  43.241 226.428  1.00  0.00     0.009 C 
ATOM     17  C15 UNK     1      -4.067  41.850 226.423  1.00  0.00     0.077 C 
ATOM     18  N4  UNK     1      -4.489  39.997 227.888  1.00  0.00    -0.349 N 
ATOM     19  C17 UNK     1      -4.174  39.192 228.954  1.00  0.00     0.018 A 
ATOM     20  H4  UNK     1      -5.302  39.799 227.304  1.00  0.00     0.167 HD
ATOM     21  C20 UNK     1      -5.114  38.024 229.106  1.00  0.00     0.069 C 
ENDBRANCH   8   9
ENDBRANCH   7   8
ENDBRANCH   1   7
BRANCH   2  22
ATOM     22  C7  UNK     1       1.179  36.356 235.163  1.00  0.00     0.050 A 
ATOM     23  N3  UNK     1       1.331  35.037 235.259  1.00  0.00    -0.264 N 
ATOM     24  O1  UNK     1       2.210  34.854 236.319  1.00  0.00    -0.237 OA
ATOM     25  H3  UNK     1       0.896  34.318 234.681  1.00  0.00     0.194 HD
ATOM     26  C18 UNK     1       2.561  36.066 236.830  1.00  0.00     0.114 A 
ATOM     27  C10 UNK     1       1.922  37.066 236.117  1.00  0.00     0.025 A 
ATOM     28  C21 UNK     1       3.423  36.293 237.899  1.00  0.00     0.082 A 
ATOM     29  C19 UNK     1       2.141  38.404 236.476  1.00  0.00     0.019 A 
ATOM     30  C22 UNK     1       3.005  38.670 237.548  1.00  0.00     0.043 A 
ATOM     31  C23 UNK     1       3.632  37.632 238.245  1.00  0.00     0.119 A 
ATOM     32  F1  UNK     1       4.450  37.925 239.265  1.00  0.00    -0.206 F 
ENDBRANCH   2  22
TORSDOF 4
ENDMDL
