MODEL 1
REMARK VINA RESULT:      -6.6      0.000      0.000
REMARK  16 active torsions:
REMARK  status: ('A' for Active; 'I' for Inactive)
REMARK    1  A    between atoms: O1_1  and  C3_8 
REMARK    2  A    between atoms: O3_3  and  C11_16 
REMARK    3  A    between atoms: O4_4  and  C21_26 
REMARK    4  A    between atoms: C1_6  and  C5_10 
REMARK    5  A    between atoms: C2_7  and  C7_12 
REMARK    6  A    between atoms: C5_10  and  C8_13 
REMARK    7  A    between atoms: C8_13  and  C9_14 
REMARK    8  A    between atoms: C9_14  and  C13_18 
REMARK    9  A    between atoms: C10_15  and  C12_17 
REMARK   10  A    between atoms: C11_16  and  C12_17 
REMARK   11  A    between atoms: C11_16  and  C14_19 
REMARK   12  A    between atoms: C13_18  and  C16_21 
REMARK   13  A    between atoms: C14_19  and  C17_22 
REMARK   14  A    between atoms: C16_21  and  C19_24 
REMARK   15  A    between atoms: C17_22  and  C18_23 
REMARK   16  A    between atoms: C19_24  and  C21_26 
ROOT
ATOM      1  O2  UNK     1      -3.012  36.490 229.105  1.00  0.00    -0.297 OA
ATOM      2  C1  UNK     1      -1.741  38.398 229.905  1.00  0.00     0.065 C 
ATOM      3  C2  UNK     1      -2.359  39.729 230.362  1.00  0.00     0.048 C 
ATOM      4  C3  UNK     1      -3.449  40.004 229.317  1.00  0.00     0.133 C 
ATOM      5  C4  UNK     1      -4.092  38.643 229.066  1.00  0.00     0.111 C 
ATOM      6  C6  UNK     1      -2.955  37.692 229.335  1.00  0.00     0.134 C 
ENDROOT
BRANCH   3   7
ATOM      7  C7  UNK     1      -1.350  40.829 230.455  1.00  0.00    -0.023 C 
ATOM      8  C10 UNK     1      -0.719  41.354 229.396  1.00  0.00    -0.027 C 
BRANCH   8   9
ATOM      9  C12 UNK     1       0.302  42.457 229.492  1.00  0.00     0.064 C 
BRANCH   9  10
ATOM     10  C11 UNK     1       0.347  43.400 228.263  1.00  0.00     0.057 C 
ATOM     11  C15 UNK     1      -0.636  42.958 227.173  1.00  0.00     0.046 C 
BRANCH  10  12
ATOM     12  O3  UNK     1      -0.030  44.716 228.677  1.00  0.00    -0.390 OA
ATOM     13  H28 UNK     1      -0.749  45.019 228.097  1.00  0.00     0.210 HD
ENDBRANCH  10  12
BRANCH  10  14
ATOM     14  C14 UNK     1       1.801  43.452 227.731  1.00  0.00     0.038 C 
BRANCH  14  15
ATOM     15  C17 UNK     1       2.875  43.032 228.745  1.00  0.00     0.002 C 
BRANCH  15  16
ATOM     16  C18 UNK     1       3.387  44.237 229.537  1.00  0.00    -0.004 C 
ATOM     17  C20 UNK     1       4.536  43.852 230.455  1.00  0.00     0.005 C 
ENDBRANCH  15  16
ENDBRANCH  14  15
ENDBRANCH  10  14
ENDBRANCH   9  10
ENDBRANCH   8   9
ENDBRANCH   3   7
BRANCH   2  18
ATOM     18  C5  UNK     1      -1.091  37.617 231.035  1.00  0.00     0.013 C 
BRANCH  18  19
ATOM     19  C8  UNK     1       0.150  36.864 230.554  1.00  0.00     0.001 C 
BRANCH  19  20
ATOM     20  C9  UNK     1       1.252  36.873 231.614  1.00  0.00     0.000 C 
BRANCH  20  21
ATOM     21  C13 UNK     1       0.702  36.506 232.993  1.00  0.00     0.000 C 
BRANCH  21  22
ATOM     22  C16 UNK     1       1.260  37.432 234.078  1.00  0.00     0.010 C 
BRANCH  22  23
ATOM     23  C19 UNK     1       0.158  38.143 234.863  1.00  0.00     0.111 C 
BRANCH  23  24
ATOM     24  C21 UNK     1       0.544  38.442 236.295  1.00  0.00     0.258 C 
ATOM     25  O5  UNK     1      -0.102  38.117 237.282  1.00  0.00    -0.265 OA
BRANCH  24  26
ATOM     26  O4  UNK     1       1.740  39.103 236.303  1.00  0.00    -0.326 OA
ATOM     27  C22 UNK     1       2.682  38.661 237.284  1.00  0.00     0.213 C 
ENDBRANCH  24  26
ENDBRANCH  23  24
ENDBRANCH  22  23
ENDBRANCH  21  22
ENDBRANCH  20  21
ENDBRANCH  19  20
ENDBRANCH  18  19
ENDBRANCH   2  18
BRANCH   4  28
ATOM     28  O1  UNK     1      -4.403  40.917 229.837  1.00  0.00    -0.394 OA
ATOM     29  H16 UNK     1      -5.272  40.482 229.797  1.00  0.00     0.210 HD
ENDBRANCH   4  28
TORSDOF 16
ENDMDL
MODEL 2
REMARK VINA RESULT:      -6.3      1.648      7.310
REMARK  16 active torsions:
REMARK  status: ('A' for Active; 'I' for Inactive)
REMARK    1  A    between atoms: O1_1  and  C3_8 
REMARK    2  A    between atoms: O3_3  and  C11_16 
REMARK    3  A    between atoms: O4_4  and  C21_26 
REMARK    4  A    between atoms: C1_6  and  C5_10 
REMARK    5  A    between atoms: C2_7  and  C7_12 
REMARK    6  A    between atoms: C5_10  and  C8_13 
REMARK    7  A    between atoms: C8_13  and  C9_14 
REMARK    8  A    between atoms: C9_14  and  C13_18 
REMARK    9  A    between atoms: C10_15  and  C12_17 
REMARK   10  A    between atoms: C11_16  and  C12_17 
REMARK   11  A    between atoms: C11_16  and  C14_19 
REMARK   12  A    between atoms: C13_18  and  C16_21 
REMARK   13  A    between atoms: C14_19  and  C17_22 
REMARK   14  A    between atoms: C16_21  and  C19_24 
REMARK   15  A    between atoms: C17_22  and  C18_23 
REMARK   16  A    between atoms: C19_24  and  C21_26 
ROOT
ATOM      1  O2  UNK     1      -3.074  37.150 229.057  1.00  0.00    -0.297 OA
ATOM      2  C1  UNK     1      -1.390  37.368 230.792  1.00  0.00     0.065 C 
ATOM      3  C2  UNK     1       0.109  37.095 230.593  1.00  0.00     0.048 C 
ATOM      4  C3  UNK     1       0.139  35.815 229.747  1.00  0.00     0.133 C 
ATOM      5  C4  UNK     1      -0.983  36.001 228.728  1.00  0.00     0.111 C 
ATOM      6  C6  UNK     1      -1.955  36.879 229.474  1.00  0.00     0.134 C 
ENDROOT
BRANCH   3   7
ATOM      7  C7  UNK     1       0.846  36.956 231.887  1.00  0.00    -0.023 C 
ATOM      8  C10 UNK     1       0.337  36.358 232.973  1.00  0.00    -0.027 C 
BRANCH   8   9
ATOM      9  C12 UNK     1       1.077  36.225 234.278  1.00  0.00     0.064 C 
BRANCH   9  10
ATOM     10  C11 UNK     1       0.498  37.077 235.435  1.00  0.00     0.057 C 
ATOM     11  C15 UNK     1      -0.974  37.433 235.195  1.00  0.00     0.046 C 
BRANCH  10  12
ATOM     12  O3  UNK     1       0.566  36.317 236.645  1.00  0.00    -0.390 OA
ATOM     13  H28 UNK     1       0.157  36.844 237.354  1.00  0.00     0.210 HD
ENDBRANCH  10  12
BRANCH  10  14
ATOM     14  C14 UNK     1       1.371  38.345 235.604  1.00  0.00     0.038 C 
BRANCH  14  15
ATOM     15  C17 UNK     1       2.374  38.288 236.764  1.00  0.00     0.002 C 
BRANCH  15  16
ATOM     16  C18 UNK     1       1.965  39.235 237.894  1.00  0.00    -0.004 C 
ATOM     17  C20 UNK     1       0.609  39.868 237.627  1.00  0.00     0.005 C 
ENDBRANCH  15  16
ENDBRANCH  14  15
ENDBRANCH  10  14
ENDBRANCH   9  10
ENDBRANCH   8   9
ENDBRANCH   3   7
BRANCH   2  18
ATOM     18  C5  UNK     1      -1.707  38.831 231.054  1.00  0.00     0.013 C 
BRANCH  18  19
ATOM     19  C8  UNK     1      -1.640  39.658 229.770  1.00  0.00     0.001 C 
BRANCH  19  20
ATOM     20  C9  UNK     1      -0.870  40.961 229.986  1.00  0.00     0.000 C 
BRANCH  20  21
ATOM     21  C13 UNK     1      -1.579  42.144 229.324  1.00  0.00     0.000 C 
BRANCH  21  22
ATOM     22  C16 UNK     1      -0.584  43.239 228.932  1.00  0.00     0.010 C 
BRANCH  22  23
ATOM     23  C19 UNK     1       0.857  42.876 229.292  1.00  0.00     0.111 C 
BRANCH  23  24
ATOM     24  C21 UNK     1       1.585  43.983 230.023  1.00  0.00     0.258 C 
ATOM     25  O5  UNK     1       1.225  44.488 231.078  1.00  0.00    -0.265 OA
BRANCH  24  26
ATOM     26  O4  UNK     1       2.718  44.302 229.329  1.00  0.00    -0.326 OA
ATOM     27  C22 UNK     1       3.946  44.134 230.044  1.00  0.00     0.213 C 
ENDBRANCH  24  26
ENDBRANCH  23  24
ENDBRANCH  22  23
ENDBRANCH  21  22
ENDBRANCH  20  21
ENDBRANCH  19  20
ENDBRANCH  18  19
ENDBRANCH   2  18
BRANCH   4  28
ATOM     28  O1  UNK     1       1.392  35.693 229.090  1.00  0.00    -0.394 OA
ATOM     29  H16 UNK     1       1.943  35.097 229.625  1.00  0.00     0.210 HD
ENDBRANCH   4  28
TORSDOF 16
ENDMDL
MODEL 3
REMARK VINA RESULT:      -6.2      4.134      6.667
REMARK  16 active torsions:
REMARK  status: ('A' for Active; 'I' for Inactive)
REMARK    1  A    between atoms: O1_1  and  C3_8 
REMARK    2  A    between atoms: O3_3  and  C11_16 
REMARK    3  A    between atoms: O4_4  and  C21_26 
REMARK    4  A    between atoms: C1_6  and  C5_10 
REMARK    5  A    between atoms: C2_7  and  C7_12 
REMARK    6  A    between atoms: C5_10  and  C8_13 
REMARK    7  A    between atoms: C8_13  and  C9_14 
REMARK    8  A    between atoms: C9_14  and  C13_18 
REMARK    9  A    between atoms: C10_15  and  C12_17 
REMARK   10  A    between atoms: C11_16  and  C12_17 
REMARK   11  A    between atoms: C11_16  and  C14_19 
REMARK   12  A    between atoms: C13_18  and  C16_21 
REMARK   13  A    between atoms: C14_19  and  C17_22 
REMARK   14  A    between atoms: C16_21  and  C19_24 
REMARK   15  A    between atoms: C17_22  and  C18_23 
REMARK   16  A    between atoms: C19_24  and  C21_26 
ROOT
ATOM      1  O2  UNK     1      -1.487  36.308 237.283  1.00  0.00    -0.297 OA
ATOM      2  C1  UNK     1      -0.403  36.263 235.111  1.00  0.00     0.065 C 
ATOM      3  C2  UNK     1       0.900  37.003 234.770  1.00  0.00     0.048 C 
ATOM      4  C3  UNK     1       0.727  38.375 235.435  1.00  0.00     0.133 C 
ATOM      5  C4  UNK     1       0.080  38.069 236.784  1.00  0.00     0.111 C 
ATOM      6  C6  UNK     1      -0.699  36.812 236.492  1.00  0.00     0.134 C 
ENDROOT
BRANCH   3   7
ATOM      7  C7  UNK     1       1.140  37.095 233.297  1.00  0.00    -0.023 C 
ATOM      8  C10 UNK     1       0.605  36.254 232.400  1.00  0.00    -0.027 C 
BRANCH   8   9
ATOM      9  C12 UNK     1       0.853  36.344 230.918  1.00  0.00     0.064 C 
BRANCH   9  10
ATOM     10  C11 UNK     1      -0.413  36.625 230.070  1.00  0.00     0.057 C 
ATOM     11  C15 UNK     1      -0.451  38.074 229.571  1.00  0.00     0.046 C 
BRANCH  10  12
ATOM     12  O3  UNK     1      -0.398  35.773 228.922  1.00  0.00    -0.390 OA
ATOM     13  H28 UNK     1       0.320  36.071 228.336  1.00  0.00     0.210 HD
ENDBRANCH  10  12
BRANCH  10  14
ATOM     14  C14 UNK     1      -1.664  36.282 230.917  1.00  0.00     0.038 C 
BRANCH  14  15
ATOM     15  C17 UNK     1      -2.617  37.459 231.168  1.00  0.00     0.002 C 
BRANCH  15  16
ATOM     16  C18 UNK     1      -2.842  37.677 232.666  1.00  0.00    -0.004 C 
ATOM     17  C20 UNK     1      -2.138  38.932 233.157  1.00  0.00     0.005 C 
ENDBRANCH  15  16
ENDBRANCH  14  15
ENDBRANCH  10  14
ENDBRANCH   9  10
ENDBRANCH   8   9
ENDBRANCH   3   7
BRANCH   2  18
ATOM     18  C5  UNK     1      -0.256  34.750 235.107  1.00  0.00     0.013 C 
BRANCH  18  19
ATOM     19  C8  UNK     1       0.640  34.270 236.248  1.00  0.00     0.001 C 
BRANCH  19  20
ATOM     20  C9  UNK     1       1.948  33.679 235.719  1.00  0.00     0.000 C 
BRANCH  20  21
ATOM     21  C13 UNK     1       3.132  34.064 236.608  1.00  0.00     0.000 C 
BRANCH  21  22
ATOM     22  C16 UNK     1       2.814  35.302 237.452  1.00  0.00     0.010 C 
BRANCH  22  23
ATOM     23  C19 UNK     1       3.705  36.494 237.099  1.00  0.00     0.111 C 
BRANCH  23  24
ATOM     24  C21 UNK     1       3.756  37.542 238.189  1.00  0.00     0.258 C 
ATOM     25  O5  UNK     1       3.521  38.733 238.034  1.00  0.00    -0.265 OA
BRANCH  24  26
ATOM     26  O4  UNK     1       4.076  36.937 239.372  1.00  0.00    -0.326 OA
ATOM     27  C22 UNK     1       3.926  37.750 240.540  1.00  0.00     0.213 C 
ENDBRANCH  24  26
ENDBRANCH  23  24
ENDBRANCH  22  23
ENDBRANCH  21  22
ENDBRANCH  20  21
ENDBRANCH  19  20
ENDBRANCH  18  19
ENDBRANCH   2  18
BRANCH   4  28
ATOM     28  O1  UNK     1       1.992  38.991 235.619  1.00  0.00    -0.394 OA
ATOM     29  H16 UNK     1       2.077  39.686 234.946  1.00  0.00     0.210 HD
ENDBRANCH   4  28
TORSDOF 16
ENDMDL
MODEL 4
REMARK VINA RESULT:      -6.0      5.088     10.083
REMARK  16 active torsions:
REMARK  status: ('A' for Active; 'I' for Inactive)
REMARK    1  A    between atoms: O1_1  and  C3_8 
REMARK    2  A    between atoms: O3_3  and  C11_16 
REMARK    3  A    between atoms: O4_4  and  C21_26 
REMARK    4  A    between atoms: C1_6  and  C5_10 
REMARK    5  A    between atoms: C2_7  and  C7_12 
REMARK    6  A    between atoms: C5_10  and  C8_13 
REMARK    7  A    between atoms: C8_13  and  C9_14 
REMARK    8  A    between atoms: C9_14  and  C13_18 
REMARK    9  A    between atoms: C10_15  and  C12_17 
REMARK   10  A    between atoms: C11_16  and  C12_17 
REMARK   11  A    between atoms: C11_16  and  C14_19 
REMARK   12  A    between atoms: C13_18  and  C16_21 
REMARK   13  A    between atoms: C14_19  and  C17_22 
REMARK   14  A    between atoms: C16_21  and  C19_24 
REMARK   15  A    between atoms: C17_22  and  C18_23 
REMARK   16  A    between atoms: C19_24  and  C21_26 
ROOT
ATOM      1  O2  UNK     1       1.513  39.912 237.132  1.00  0.00    -0.297 OA
ATOM      2  C1  UNK     1       1.758  37.501 237.270  1.00  0.00     0.065 C 
ATOM      3  C2  UNK     1       2.529  36.763 238.376  1.00  0.00     0.048 C 
ATOM      4  C3  UNK     1       3.798  37.606 238.562  1.00  0.00     0.133 C 
ATOM      5  C4  UNK     1       3.315  39.052 238.480  1.00  0.00     0.111 C 
ATOM      6  C6  UNK     1       2.115  38.942 237.574  1.00  0.00     0.134 C 
ENDROOT
BRANCH   3   7
ATOM      7  C7  UNK     1       2.821  35.340 238.023  1.00  0.00    -0.023 C 
ATOM      8  C10 UNK     1       3.063  34.917 236.774  1.00  0.00    -0.027 C 
BRANCH   8   9
ATOM      9  C12 UNK     1       3.350  33.482 236.419  1.00  0.00     0.064 C 
BRANCH   9  10
ATOM     10  C11 UNK     1       2.141  32.711 235.833  1.00  0.00     0.057 C 
ATOM     11  C15 UNK     1       2.586  31.616 234.856  1.00  0.00     0.046 C 
BRANCH  10  12
ATOM     12  O3  UNK     1       1.437  32.075 236.903  1.00  0.00    -0.390 OA
ATOM     13  H28 UNK     1       1.863  32.334 237.739  1.00  0.00     0.210 HD
ENDBRANCH  10  12
BRANCH  10  14
ATOM     14  C14 UNK     1       1.187  33.725 235.155  1.00  0.00     0.038 C 
BRANCH  14  15
ATOM     15  C17 UNK     1      -0.296  33.555 235.512  1.00  0.00     0.002 C 
BRANCH  15  16
ATOM     16  C18 UNK     1      -1.166  33.520 234.254  1.00  0.00    -0.004 C 
ATOM     17  C20 UNK     1      -2.357  34.457 234.374  1.00  0.00     0.005 C 
ENDBRANCH  15  16
ENDBRANCH  14  15
ENDBRANCH  10  14
ENDBRANCH   9  10
ENDBRANCH   8   9
ENDBRANCH   3   7
BRANCH   2  18
ATOM     18  C5  UNK     1       0.260  37.252 237.312  1.00  0.00     0.013 C 
BRANCH  18  19
ATOM     19  C8  UNK     1      -0.326  37.118 235.906  1.00  0.00     0.001 C 
BRANCH  19  20
ATOM     20  C9  UNK     1       0.758  37.253 234.836  1.00  0.00     0.000 C 
BRANCH  20  21
ATOM     21  C13 UNK     1       0.148  37.463 233.449  1.00  0.00     0.000 C 
BRANCH  21  22
ATOM     22  C16 UNK     1       1.048  36.884 232.353  1.00  0.00     0.010 C 
BRANCH  22  23
ATOM     23  C19 UNK     1       0.427  35.665 231.672  1.00  0.00     0.111 C 
BRANCH  23  24
ATOM     24  C21 UNK     1       0.373  35.787 230.164  1.00  0.00     0.258 C 
ATOM     25  O5  UNK     1       1.324  36.060 229.445  1.00  0.00    -0.265 OA
BRANCH  24  26
ATOM     26  O4  UNK     1      -0.897  35.514 229.742  1.00  0.00    -0.326 OA
ATOM     27  C22 UNK     1      -1.848  35.253 230.779  1.00  0.00     0.213 C 
ENDBRANCH  24  26
ENDBRANCH  23  24
ENDBRANCH  22  23
ENDBRANCH  21  22
ENDBRANCH  20  21
ENDBRANCH  19  20
ENDBRANCH  18  19
ENDBRANCH   2  18
BRANCH   4  28
ATOM     28  O1  UNK     1       4.375  37.346 239.832  1.00  0.00    -0.394 OA
ATOM     29  H16 UNK     1       3.893  37.881 240.485  1.00  0.00     0.210 HD
ENDBRANCH   4  28
TORSDOF 16
ENDMDL
MODEL 5
REMARK VINA RESULT:      -5.9      4.789     10.342
REMARK  16 active torsions:
REMARK  status: ('A' for Active; 'I' for Inactive)
REMARK    1  A    between atoms: O1_1  and  C3_8 
REMARK    2  A    between atoms: O3_3  and  C11_16 
REMARK    3  A    between atoms: O4_4  and  C21_26 
REMARK    4  A    between atoms: C1_6  and  C5_10 
REMARK    5  A    between atoms: C2_7  and  C7_12 
REMARK    6  A    between atoms: C5_10  and  C8_13 
REMARK    7  A    between atoms: C8_13  and  C9_14 
REMARK    8  A    between atoms: C9_14  and  C13_18 
REMARK    9  A    between atoms: C10_15  and  C12_17 
REMARK   10  A    between atoms: C11_16  and  C12_17 
REMARK   11  A    between atoms: C11_16  and  C14_19 
REMARK   12  A    between atoms: C13_18  and  C16_21 
REMARK   13  A    between atoms: C14_19  and  C17_22 
REMARK   14  A    between atoms: C16_21  and  C19_24 
REMARK   15  A    between atoms: C17_22  and  C18_23 
REMARK   16  A    between atoms: C19_24  and  C21_26 
ROOT
ATOM      1  O2  UNK     1       1.470  39.667 236.634  1.00  0.00    -0.297 OA
ATOM      2  C1  UNK     1       2.145  37.344 236.428  1.00  0.00     0.065 C 
ATOM      3  C2  UNK     1       2.790  36.518 237.551  1.00  0.00     0.048 C 
ATOM      4  C3  UNK     1       3.801  37.486 238.181  1.00  0.00     0.133 C 
ATOM      5  C4  UNK     1       3.075  38.828 238.223  1.00  0.00     0.111 C 
ATOM      6  C6  UNK     1       2.142  38.728 237.044  1.00  0.00     0.134 C 
ENDROOT
BRANCH   3   7
ATOM      7  C7  UNK     1       3.422  35.259 237.051  1.00  0.00    -0.023 C 
ATOM      8  C10 UNK     1       2.810  34.066 237.053  1.00  0.00    -0.027 C 
BRANCH   8   9
ATOM      9  C12 UNK     1       3.450  32.797 236.555  1.00  0.00     0.064 C 
BRANCH   9  10
ATOM     10  C11 UNK     1       2.449  31.730 236.045  1.00  0.00     0.057 C 
ATOM     11  C15 UNK     1       2.849  30.319 236.491  1.00  0.00     0.046 C 
BRANCH  10  12
ATOM     12  O3  UNK     1       1.159  32.008 236.597  1.00  0.00    -0.390 OA
ATOM     13  H28 UNK     1       1.097  31.558 237.458  1.00  0.00     0.210 HD
ENDBRANCH  10  12
BRANCH  10  14
ATOM     14  C14 UNK     1       2.354  31.835 234.503  1.00  0.00     0.038 C 
BRANCH  14  15
ATOM     15  C17 UNK     1       1.115  32.575 233.981  1.00  0.00     0.002 C 
BRANCH  15  16
ATOM     16  C18 UNK     1       0.404  31.765 232.896  1.00  0.00    -0.004 C 
ATOM     17  C20 UNK     1       1.120  30.452 232.622  1.00  0.00     0.005 C 
ENDBRANCH  15  16
ENDBRANCH  14  15
ENDBRANCH  10  14
ENDBRANCH   9  10
ENDBRANCH   8   9
ENDBRANCH   3   7
BRANCH   2  18
ATOM     18  C5  UNK     1       0.750  36.869 236.056  1.00  0.00     0.013 C 
BRANCH  18  19
ATOM     19  C8  UNK     1       0.704  36.326 234.628  1.00  0.00     0.001 C 
BRANCH  19  20
ATOM     20  C9  UNK     1       1.335  37.307 233.639  1.00  0.00     0.000 C 
BRANCH  20  21
ATOM     21  C13 UNK     1       0.887  37.017 232.205  1.00  0.00     0.000 C 
BRANCH  21  22
ATOM     22  C16 UNK     1       0.419  35.567 232.051  1.00  0.00     0.010 C 
BRANCH  22  23
ATOM     23  C19 UNK     1       0.136  35.196 230.595  1.00  0.00     0.111 C 
BRANCH  23  24
ATOM     24  C21 UNK     1      -0.851  36.126 229.924  1.00  0.00     0.258 C 
ATOM     25  O5  UNK     1      -1.991  36.343 230.310  1.00  0.00    -0.265 OA
BRANCH  24  26
ATOM     26  O4  UNK     1      -0.250  36.703 228.840  1.00  0.00    -0.326 OA
ATOM     27  C22 UNK     1       0.072  35.812 227.768  1.00  0.00     0.213 C 
ENDBRANCH  24  26
ENDBRANCH  23  24
ENDBRANCH  22  23
ENDBRANCH  21  22
ENDBRANCH  20  21
ENDBRANCH  19  20
ENDBRANCH  18  19
ENDBRANCH   2  18
BRANCH   4  28
ATOM     28  O1  UNK     1       4.132  37.059 239.494  1.00  0.00    -0.394 OA
ATOM     29  H16 UNK     1       5.057  36.758 239.477  1.00  0.00     0.210 HD
ENDBRANCH   4  28
TORSDOF 16
ENDMDL
MODEL 6
REMARK VINA RESULT:      -5.8      1.953      7.847
REMARK  16 active torsions:
REMARK  status: ('A' for Active; 'I' for Inactive)
REMARK    1  A    between atoms: O1_1  and  C3_8 
REMARK    2  A    between atoms: O3_3  and  C11_16 
REMARK    3  A    between atoms: O4_4  and  C21_26 
REMARK    4  A    between atoms: C1_6  and  C5_10 
REMARK    5  A    between atoms: C2_7  and  C7_12 
REMARK    6  A    between atoms: C5_10  and  C8_13 
REMARK    7  A    between atoms: C8_13  and  C9_14 
REMARK    8  A    between atoms: C9_14  and  C13_18 
REMARK    9  A    between atoms: C10_15  and  C12_17 
REMARK   10  A    between atoms: C11_16  and  C12_17 
REMARK   11  A    between atoms: C11_16  and  C14_19 
REMARK   12  A    between atoms: C13_18  and  C16_21 
REMARK   13  A    between atoms: C14_19  and  C17_22 
REMARK   14  A    between atoms: C16_21  and  C19_24 
REMARK   15  A    between atoms: C17_22  and  C18_23 
REMARK   16  A    between atoms: C19_24  and  C21_26 
ROOT
ATOM      1  O2  UNK     1      -3.352  37.511 229.743  1.00  0.00    -0.297 OA
ATOM      2  C1  UNK     1      -1.181  37.779 230.797  1.00  0.00     0.065 C 
ATOM      3  C2  UNK     1      -0.065  36.724 230.777  1.00  0.00     0.048 C 
ATOM      4  C3  UNK     1      -0.805  35.403 231.029  1.00  0.00     0.133 C 
ATOM      5  C4  UNK     1      -2.083  35.515 230.202  1.00  0.00     0.111 C 
ATOM      6  C6  UNK     1      -2.331  37.002 230.188  1.00  0.00     0.134 C 
ENDROOT
BRANCH   3   7
ATOM      7  C7  UNK     1       1.002  36.997 231.789  1.00  0.00    -0.023 C 
ATOM      8  C10 UNK     1       0.755  37.413 233.039  1.00  0.00    -0.027 C 
BRANCH   8   9
ATOM      9  C12 UNK     1       1.831  37.694 234.055  1.00  0.00     0.064 C 
BRANCH   9  10
ATOM     10  C11 UNK     1       1.322  37.810 235.514  1.00  0.00     0.057 C 
ATOM     11  C15 UNK     1       2.288  37.151 236.505  1.00  0.00     0.046 C 
BRANCH  10  12
ATOM     12  O3  UNK     1       1.226  39.195 235.860  1.00  0.00    -0.390 OA
ATOM     13  H28 UNK     1       2.094  39.605 235.699  1.00  0.00     0.210 HD
ENDBRANCH  10  12
BRANCH  10  14
ATOM     14  C14 UNK     1      -0.093  37.186 235.597  1.00  0.00     0.038 C 
BRANCH  14  15
ATOM     15  C17 UNK     1      -0.692  37.130 237.010  1.00  0.00     0.002 C 
BRANCH  15  16
ATOM     16  C18 UNK     1      -1.482  35.837 237.223  1.00  0.00    -0.004 C 
ATOM     17  C20 UNK     1      -2.976  36.105 237.310  1.00  0.00     0.005 C 
ENDBRANCH  15  16
ENDBRANCH  14  15
ENDBRANCH  10  14
ENDBRANCH   9  10
ENDBRANCH   8   9
ENDBRANCH   3   7
BRANCH   2  18
ATOM     18  C5  UNK     1      -0.842  39.031 230.005  1.00  0.00     0.013 C 
BRANCH  18  19
ATOM     19  C8  UNK     1      -1.775  40.189 230.359  1.00  0.00     0.001 C 
BRANCH  19  20
ATOM     20  C9  UNK     1      -1.108  41.541 230.100  1.00  0.00     0.000 C 
BRANCH  20  21
ATOM     21  C13 UNK     1      -0.186  41.482 228.880  1.00  0.00     0.000 C 
BRANCH  21  22
ATOM     22  C16 UNK     1       1.005  42.432 229.038  1.00  0.00     0.010 C 
BRANCH  22  23
ATOM     23  C19 UNK     1       0.623  43.893 228.803  1.00  0.00     0.111 C 
BRANCH  23  24
ATOM     24  C21 UNK     1       0.747  44.749 230.044  1.00  0.00     0.258 C 
ATOM     25  O5  UNK     1       1.190  44.371 231.120  1.00  0.00    -0.265 OA
BRANCH  24  26
ATOM     26  O4  UNK     1       0.313  46.012 229.757  1.00  0.00    -0.326 OA
ATOM     27  C22 UNK     1       1.120  46.746 228.831  1.00  0.00     0.213 C 
ENDBRANCH  24  26
ENDBRANCH  23  24
ENDBRANCH  22  23
ENDBRANCH  21  22
ENDBRANCH  20  21
ENDBRANCH  19  20
ENDBRANCH  18  19
ENDBRANCH   2  18
BRANCH   4  28
ATOM     28  O1  UNK     1      -0.017  34.310 230.582  1.00  0.00    -0.394 OA
ATOM     29  H16 UNK     1      -0.607  33.705 230.103  1.00  0.00     0.210 HD
ENDBRANCH   4  28
TORSDOF 16
ENDMDL
MODEL 7
REMARK VINA RESULT:      -5.8      2.675      7.279
REMARK  16 active torsions:
REMARK  status: ('A' for Active; 'I' for Inactive)
REMARK    1  A    between atoms: O1_1  and  C3_8 
REMARK    2  A    between atoms: O3_3  and  C11_16 
REMARK    3  A    between atoms: O4_4  and  C21_26 
REMARK    4  A    between atoms: C1_6  and  C5_10 
REMARK    5  A    between atoms: C2_7  and  C7_12 
REMARK    6  A    between atoms: C5_10  and  C8_13 
REMARK    7  A    between atoms: C8_13  and  C9_14 
REMARK    8  A    between atoms: C9_14  and  C13_18 
REMARK    9  A    between atoms: C10_15  and  C12_17 
REMARK   10  A    between atoms: C11_16  and  C12_17 
REMARK   11  A    between atoms: C11_16  and  C14_19 
REMARK   12  A    between atoms: C13_18  and  C16_21 
REMARK   13  A    between atoms: C14_19  and  C17_22 
REMARK   14  A    between atoms: C16_21  and  C19_24 
REMARK   15  A    between atoms: C17_22  and  C18_23 
REMARK   16  A    between atoms: C19_24  and  C21_26 
ROOT
ATOM      1  O2  UNK     1      -5.354  42.189 227.068  1.00  0.00    -0.297 OA
ATOM      2  C1  UNK     1      -3.905  41.052 228.650  1.00  0.00     0.065 C 
ATOM      3  C2  UNK     1      -3.685  39.532 228.696  1.00  0.00     0.048 C 
ATOM      4  C3  UNK     1      -5.092  38.952 228.497  1.00  0.00     0.133 C 
ATOM      5  C4  UNK     1      -5.722  39.835 227.422  1.00  0.00     0.111 C 
ATOM      6  C6  UNK     1      -5.030  41.155 227.640  1.00  0.00     0.134 C 
ENDROOT
BRANCH   3   7
ATOM      7  C7  UNK     1      -3.044  39.082 229.970  1.00  0.00    -0.023 C 
ATOM      8  C10 UNK     1      -1.849  38.479 230.031  1.00  0.00    -0.027 C 
BRANCH   8   9
ATOM      9  C12 UNK     1      -1.208  38.020 231.314  1.00  0.00     0.064 C 
BRANCH   9  10
ATOM     10  C11 UNK     1      -0.328  36.752 231.175  1.00  0.00     0.057 C 
ATOM     11  C15 UNK     1       0.948  36.851 232.019  1.00  0.00     0.046 C 
BRANCH  10  12
ATOM     12  O3  UNK     1      -1.070  35.623 231.646  1.00  0.00    -0.390 OA
ATOM     13  H28 UNK     1      -1.507  35.210 230.880  1.00  0.00     0.210 HD
ENDBRANCH  10  12
BRANCH  10  14
ATOM     14  C14 UNK     1      -0.005  36.534 229.676  1.00  0.00     0.038 C 
BRANCH  14  15
ATOM     15  C17 UNK     1       0.894  35.325 229.379  1.00  0.00     0.002 C 
BRANCH  15  16
ATOM     16  C18 UNK     1       0.137  34.257 228.586  1.00  0.00    -0.004 C 
ATOM     17  C20 UNK     1       1.081  33.202 228.032  1.00  0.00     0.005 C 
ENDBRANCH  15  16
ENDBRANCH  14  15
ENDBRANCH  10  14
ENDBRANCH   9  10
ENDBRANCH   8   9
ENDBRANCH   3   7
BRANCH   2  18
ATOM     18  C5  UNK     1      -2.669  41.827 228.226  1.00  0.00     0.013 C 
BRANCH  18  19
ATOM     19  C8  UNK     1      -1.856  42.293 229.434  1.00  0.00     0.001 C 
BRANCH  19  20
ATOM     20  C9  UNK     1      -0.363  42.024 229.238  1.00  0.00     0.000 C 
BRANCH  20  21
ATOM     21  C13 UNK     1       0.088  42.393 227.824  1.00  0.00     0.000 C 
BRANCH  21  22
ATOM     22  C16 UNK     1       1.606  42.587 227.758  1.00  0.00     0.010 C 
BRANCH  22  23
ATOM     23  C19 UNK     1       2.207  42.951 229.115  1.00  0.00     0.111 C 
BRANCH  23  24
ATOM     24  C21 UNK     1       2.786  44.348 229.156  1.00  0.00     0.258 C 
ATOM     25  O5  UNK     1       3.800  44.675 229.758  1.00  0.00    -0.265 OA
BRANCH  24  26
ATOM     26  O4  UNK     1       2.010  45.172 228.389  1.00  0.00    -0.326 OA
ATOM     27  C22 UNK     1       1.052  45.958 229.105  1.00  0.00     0.213 C 
ENDBRANCH  24  26
ENDBRANCH  23  24
ENDBRANCH  22  23
ENDBRANCH  21  22
ENDBRANCH  20  21
ENDBRANCH  19  20
ENDBRANCH  18  19
ENDBRANCH   2  18
BRANCH   4  28
ATOM     28  O1  UNK     1      -5.007  37.608 228.050  1.00  0.00    -0.394 OA
ATOM     29  H16 UNK     1      -4.175  37.241 228.392  1.00  0.00     0.210 HD
ENDBRANCH   4  28
TORSDOF 16
ENDMDL
MODEL 8
REMARK VINA RESULT:      -5.8      6.138     10.352
REMARK  16 active torsions:
REMARK  status: ('A' for Active; 'I' for Inactive)
REMARK    1  A    between atoms: O1_1  and  C3_8 
REMARK    2  A    between atoms: O3_3  and  C11_16 
REMARK    3  A    between atoms: O4_4  and  C21_26 
REMARK    4  A    between atoms: C1_6  and  C5_10 
REMARK    5  A    between atoms: C2_7  and  C7_12 
REMARK    6  A    between atoms: C5_10  and  C8_13 
REMARK    7  A    between atoms: C8_13  and  C9_14 
REMARK    8  A    between atoms: C9_14  and  C13_18 
REMARK    9  A    between atoms: C10_15  and  C12_17 
REMARK   10  A    between atoms: C11_16  and  C12_17 
REMARK   11  A    between atoms: C11_16  and  C14_19 
REMARK   12  A    between atoms: C13_18  and  C16_21 
REMARK   13  A    between atoms: C14_19  and  C17_22 
REMARK   14  A    between atoms: C16_21  and  C19_24 
REMARK   15  A    between atoms: C17_22  and  C18_23 
REMARK   16  A    between atoms: C19_24  and  C21_26 
ROOT
ATOM      1  O2  UNK     1       1.684  39.828 236.855  1.00  0.00    -0.297 OA
ATOM      2  C1  UNK     1       2.299  37.541 236.321  1.00  0.00     0.065 C 
ATOM      3  C2  UNK     1       2.648  36.465 237.361  1.00  0.00     0.048 C 
ATOM      4  C3  UNK     1       3.530  37.207 238.374  1.00  0.00     0.133 C 
ATOM      5  C4  UNK     1       2.863  38.571 238.537  1.00  0.00     0.111 C 
ATOM      6  C6  UNK     1       2.211  38.776 237.194  1.00  0.00     0.134 C 
ENDROOT
BRANCH   3   7
ATOM      7  C7  UNK     1       3.327  35.279 236.755  1.00  0.00    -0.023 C 
ATOM      8  C10 UNK     1       2.901  34.017 236.909  1.00  0.00    -0.027 C 
BRANCH   8   9
ATOM      9  C12 UNK     1       3.590  32.822 236.304  1.00  0.00     0.064 C 
BRANCH   9  10
ATOM     10  C11 UNK     1       3.062  31.454 236.804  1.00  0.00     0.057 C 
ATOM     11  C15 UNK     1       4.190  30.582 237.367  1.00  0.00     0.046 C 
BRANCH  10  12
ATOM     12  O3  UNK     1       2.124  31.681 237.860  1.00  0.00    -0.390 OA
ATOM     13  H28 UNK     1       1.709  32.548 237.712  1.00  0.00     0.210 HD
ENDBRANCH  10  12
BRANCH  10  14
ATOM     14  C14 UNK     1       2.325  30.750 235.638  1.00  0.00     0.038 C 
BRANCH  14  15
ATOM     15  C17 UNK     1       2.306  31.534 234.319  1.00  0.00     0.002 C 
BRANCH  15  16
ATOM     16  C18 UNK     1       1.113  31.126 233.452  1.00  0.00    -0.004 C 
ATOM     17  C20 UNK     1       0.173  30.195 234.200  1.00  0.00     0.005 C 
ENDBRANCH  15  16
ENDBRANCH  14  15
ENDBRANCH  10  14
ENDBRANCH   9  10
ENDBRANCH   8   9
ENDBRANCH   3   7
BRANCH   2  18
ATOM     18  C5  UNK     1       1.004  37.262 235.576  1.00  0.00     0.013 C 
BRANCH  18  19
ATOM     19  C8  UNK     1       1.184  37.408 234.065  1.00  0.00     0.001 C 
BRANCH  19  20
ATOM     20  C9  UNK     1       0.559  36.232 233.313  1.00  0.00     0.000 C 
BRANCH  20  21
ATOM     21  C13 UNK     1       0.707  34.927 234.098  1.00  0.00     0.000 C 
BRANCH  21  22
ATOM     22  C16 UNK     1      -0.627  34.182 234.196  1.00  0.00     0.010 C 
BRANCH  22  23
ATOM     23  C19 UNK     1      -1.368  34.480 235.499  1.00  0.00     0.111 C 
BRANCH  23  24
ATOM     24  C21 UNK     1      -0.721  33.844 236.711  1.00  0.00     0.258 C 
ATOM     25  O5  UNK     1      -0.408  32.665 236.806  1.00  0.00    -0.265 OA
BRANCH  24  26
ATOM     26  O4  UNK     1      -0.519  34.805 237.661  1.00  0.00    -0.326 OA
ATOM     27  C22 UNK     1      -0.213  34.320 238.972  1.00  0.00     0.213 C 
ENDBRANCH  24  26
ENDBRANCH  23  24
ENDBRANCH  22  23
ENDBRANCH  21  22
ENDBRANCH  20  21
ENDBRANCH  19  20
ENDBRANCH  18  19
ENDBRANCH   2  18
BRANCH   4  28
ATOM     28  O1  UNK     1       3.546  36.510 239.609  1.00  0.00    -0.394 OA
ATOM     29  H16 UNK     1       2.725  36.734 240.080  1.00  0.00     0.210 HD
ENDBRANCH   4  28
TORSDOF 16
ENDMDL
MODEL 9
REMARK VINA RESULT:      -5.7      4.547      8.287
REMARK  16 active torsions:
REMARK  status: ('A' for Active; 'I' for Inactive)
REMARK    1  A    between atoms: O1_1  and  C3_8 
REMARK    2  A    between atoms: O3_3  and  C11_16 
REMARK    3  A    between atoms: O4_4  and  C21_26 
REMARK    4  A    between atoms: C1_6  and  C5_10 
REMARK    5  A    between atoms: C2_7  and  C7_12 
REMARK    6  A    between atoms: C5_10  and  C8_13 
REMARK    7  A    between atoms: C8_13  and  C9_14 
REMARK    8  A    between atoms: C9_14  and  C13_18 
REMARK    9  A    between atoms: C10_15  and  C12_17 
REMARK   10  A    between atoms: C11_16  and  C12_17 
REMARK   11  A    between atoms: C11_16  and  C14_19 
REMARK   12  A    between atoms: C13_18  and  C16_21 
REMARK   13  A    between atoms: C14_19  and  C17_22 
REMARK   14  A    between atoms: C16_21  and  C19_24 
REMARK   15  A    between atoms: C17_22  and  C18_23 
REMARK   16  A    between atoms: C19_24  and  C21_26 
ROOT
ATOM      1  O2  UNK     1       3.357  37.702 239.912  1.00  0.00    -0.297 OA
ATOM      2  C1  UNK     1       2.383  36.962 237.815  1.00  0.00     0.065 C 
ATOM      3  C2  UNK     1       1.837  37.899 236.726  1.00  0.00     0.048 C 
ATOM      4  C3  UNK     1       1.067  38.966 237.515  1.00  0.00     0.133 C 
ATOM      5  C4  UNK     1       1.946  39.256 238.729  1.00  0.00     0.111 C 
ATOM      6  C6  UNK     1       2.654  37.942 238.938  1.00  0.00     0.134 C 
ENDROOT
BRANCH   3   7
ATOM      7  C7  UNK     1       0.984  37.184 235.727  1.00  0.00    -0.023 C 
ATOM      8  C10 UNK     1       1.155  37.275 234.401  1.00  0.00    -0.027 C 
BRANCH   8   9
ATOM      9  C12 UNK     1       0.291  36.561 233.395  1.00  0.00     0.064 C 
BRANCH   9  10
ATOM     10  C11 UNK     1      -0.780  37.453 232.718  1.00  0.00     0.057 C 
ATOM     11  C15 UNK     1      -2.189  36.873 232.886  1.00  0.00     0.046 C 
BRANCH  10  12
ATOM     12  O3  UNK     1      -0.766  38.741 233.340  1.00  0.00    -0.390 OA
ATOM     13  H28 UNK     1      -1.460  39.282 232.926  1.00  0.00     0.210 HD
ENDBRANCH  10  12
BRANCH  10  14
ATOM     14  C14 UNK     1      -0.409  37.626 231.225  1.00  0.00     0.038 C 
BRANCH  14  15
ATOM     15  C17 UNK     1       0.616  36.616 230.692  1.00  0.00     0.002 C 
BRANCH  15  16
ATOM     16  C18 UNK     1      -0.075  35.448 229.987  1.00  0.00    -0.004 C 
ATOM     17  C20 UNK     1       0.726  34.970 228.786  1.00  0.00     0.005 C 
ENDBRANCH  15  16
ENDBRANCH  14  15
ENDBRANCH  10  14
ENDBRANCH   9  10
ENDBRANCH   8   9
ENDBRANCH   3   7
BRANCH   2  18
ATOM     18  C5  UNK     1       3.630  36.206 237.389  1.00  0.00     0.013 C 
BRANCH  18  19
ATOM     19  C8  UNK     1       3.285  34.831 236.817  1.00  0.00     0.001 C 
BRANCH  19  20
ATOM     20  C9  UNK     1       2.381  34.043 237.766  1.00  0.00     0.000 C 
BRANCH  20  21
ATOM     21  C13 UNK     1       1.209  33.405 237.018  1.00  0.00     0.000 C 
BRANCH  21  22
ATOM     22  C16 UNK     1       1.277  33.706 235.518  1.00  0.00     0.010 C 
BRANCH  22  23
ATOM     23  C19 UNK     1       1.299  32.436 234.668  1.00  0.00     0.111 C 
BRANCH  23  24
ATOM     24  C21 UNK     1       2.494  31.552 234.949  1.00  0.00     0.258 C 
ATOM     25  O5  UNK     1       3.664  31.884 234.818  1.00  0.00    -0.265 OA
BRANCH  24  26
ATOM     26  O4  UNK     1       2.053  30.339 235.398  1.00  0.00    -0.326 OA
ATOM     27  C22 UNK     1       0.874  29.838 234.762  1.00  0.00     0.213 C 
ENDBRANCH  24  26
ENDBRANCH  23  24
ENDBRANCH  22  23
ENDBRANCH  21  22
ENDBRANCH  20  21
ENDBRANCH  19  20
ENDBRANCH  18  19
ENDBRANCH   2  18
BRANCH   4  28
ATOM     28  O1  UNK     1       0.907  40.135 236.726  1.00  0.00    -0.394 OA
ATOM     29  H16 UNK     1       0.223  39.945 236.062  1.00  0.00     0.210 HD
ENDBRANCH   4  28
TORSDOF 16
ENDMDL
