MODEL 1
REMARK VINA RESULT:      -7.0      0.000      0.000
REMARK  2 active torsions:
REMARK  status: ('A' for Active; 'I' for Inactive)
REMARK    1  A    between atoms: C1_4  and  C2_5 
REMARK    2  A    between atoms: C1_4  and  C4_7 
ROOT
ATOM      1  C1  UNK     1       0.639  43.094 227.886  1.00  0.00     0.066 C 
ATOM      2  C5  UNK     1       1.953  42.286 228.033  1.00  0.00     0.021 C 
ENDROOT
BRANCH   1   3
ATOM      3  C2  UNK     1      -0.612  42.386 228.295  1.00  0.00    -0.042 A 
ATOM      4  C3  UNK     1      -1.778  42.492 227.537  1.00  0.00    -0.049 A 
ATOM      5  C6  UNK     1      -2.933  41.820 227.939  1.00  0.00    -0.056 A 
ATOM      6  C8  UNK     1      -1.791  43.326 226.297  1.00  0.00     0.049 C 
ATOM      7  C9  UNK     1      -2.920  41.042 229.097  1.00  0.00     0.007 A 
ATOM      8  C12 UNK     1      -4.196  41.918 227.147  1.00  0.00     0.049 C 
ATOM      9  C10 UNK     1      -1.754  40.936 229.854  1.00  0.00     0.001 A 
ATOM     10  C7  UNK     1      -0.599  41.608 229.452  1.00  0.00     0.008 A 
ENDBRANCH   1   3
BRANCH   1  11
ATOM     11  C4  UNK     1       0.797  44.470 228.554  1.00  0.00     0.033 A 
ATOM     12  N1  UNK     1       1.217  45.517 227.847  1.00  0.00    -0.354 N 
ATOM     13  C13 UNK     1       1.242  46.558 228.734  1.00  0.00     0.180 A 
ATOM     14  H11 UNK     1       1.471  45.555 226.867  1.00  0.00     0.166 HD
ATOM     15  N2  UNK     1       0.858  46.185 229.934  1.00  0.00    -0.360 N 
ATOM     16  C11 UNK     1       0.574  44.847 229.811  1.00  0.00     0.114 A 
ATOM     17  H2  UNK     1       0.786  46.762 230.772  1.00  0.00     0.166 HD
ENDBRANCH   1  11
TORSDOF 2
ENDMDL
MODEL 2
REMARK VINA RESULT:      -6.2      0.598      2.034
REMARK  2 active torsions:
REMARK  status: ('A' for Active; 'I' for Inactive)
REMARK    1  A    between atoms: C1_4  and  C2_5 
REMARK    2  A    between atoms: C1_4  and  C4_7 
ROOT
ATOM      1  C1  UNK     1       0.464  43.144 227.632  1.00  0.00     0.066 C 
ATOM      2  C5  UNK     1       1.370  42.015 228.185  1.00  0.00     0.021 C 
ENDROOT
BRANCH   1   3
ATOM      3  C2  UNK     1      -0.981  42.800 227.470  1.00  0.00    -0.042 A 
ATOM      4  C3  UNK     1      -1.647  42.028 228.420  1.00  0.00    -0.049 A 
ATOM      5  C6  UNK     1      -2.997  41.722 228.247  1.00  0.00    -0.056 A 
ATOM      6  C8  UNK     1      -0.916  41.527 229.624  1.00  0.00     0.049 C 
ATOM      7  C9  UNK     1      -3.680  42.189 227.123  1.00  0.00     0.007 A 
ATOM      8  C12 UNK     1      -3.735  40.895 229.249  1.00  0.00     0.049 C 
ATOM      9  C10 UNK     1      -3.013  42.962 226.173  1.00  0.00     0.001 A 
ATOM     10  C7  UNK     1      -1.663  43.268 226.346  1.00  0.00     0.008 A 
ENDBRANCH   1   3
BRANCH   1  11
ATOM     11  C4  UNK     1       0.689  44.433 228.438  1.00  0.00     0.033 A 
ATOM     12  N1  UNK     1       1.156  45.528 227.840  1.00  0.00    -0.354 N 
ATOM     13  C13 UNK     1       1.233  46.468 228.830  1.00  0.00     0.180 A 
ATOM     14  H11 UNK     1       1.407  45.657 226.867  1.00  0.00     0.166 HD
ATOM     15  N2  UNK     1       0.836  45.990 229.989  1.00  0.00    -0.360 N 
ATOM     16  C11 UNK     1       0.489  44.687 229.730  1.00  0.00     0.114 A 
ATOM     17  H2  UNK     1       0.794  46.479 230.883  1.00  0.00     0.166 HD
ENDBRANCH   1  11
TORSDOF 2
ENDMDL
MODEL 3
REMARK VINA RESULT:      -6.0     10.837     12.464
REMARK  2 active torsions:
REMARK  status: ('A' for Active; 'I' for Inactive)
REMARK    1  A    between atoms: C1_4  and  C2_5 
REMARK    2  A    between atoms: C1_4  and  C4_7 
ROOT
ATOM      1  C1  UNK     1       3.387  38.194 238.701  1.00  0.00     0.066 C 
ATOM      2  C5  UNK     1       4.028  38.882 239.932  1.00  0.00     0.021 C 
ENDROOT
BRANCH   1   3
ATOM      3  C2  UNK     1       3.203  36.715 238.803  1.00  0.00    -0.042 A 
ATOM      4  C3  UNK     1       3.312  35.897 237.678  1.00  0.00    -0.049 A 
ATOM      5  C6  UNK     1       3.138  34.518 237.800  1.00  0.00    -0.056 A 
ATOM      6  C8  UNK     1       3.614  36.498 236.343  1.00  0.00     0.049 C 
ATOM      7  C9  UNK     1       2.855  33.958 239.046  1.00  0.00     0.007 A 
ATOM      8  C12 UNK     1       3.247  33.620 236.611  1.00  0.00     0.049 C 
ATOM      9  C10 UNK     1       2.748  34.776 240.170  1.00  0.00     0.001 A 
ATOM     10  C7  UNK     1       2.922  36.154 240.049  1.00  0.00     0.008 A 
ENDBRANCH   1   3
BRANCH   1  11
ATOM     11  C4  UNK     1       2.100  38.933 238.302  1.00  0.00     0.033 A 
ATOM     12  N1  UNK     1       1.111  39.085 239.180  1.00  0.00    -0.354 N 
ATOM     13  C13 UNK     1       0.140  39.774 238.506  1.00  0.00     0.180 A 
ATOM     14  H11 UNK     1       1.066  38.766 240.140  1.00  0.00     0.166 HD
ATOM     15  N2  UNK     1       0.500  40.041 237.271  1.00  0.00    -0.360 N 
ATOM     16  C11 UNK     1       1.755  39.500 237.147  1.00  0.00     0.114 A 
ATOM     17  H2  UNK     1      -0.036  40.541 236.561  1.00  0.00     0.166 HD
ENDBRANCH   1  11
TORSDOF 2
ENDMDL
MODEL 4
REMARK VINA RESULT:      -5.9      9.598     11.359
REMARK  2 active torsions:
REMARK  status: ('A' for Active; 'I' for Inactive)
REMARK    1  A    between atoms: C1_4  and  C2_5 
REMARK    2  A    between atoms: C1_4  and  C4_7 
ROOT
ATOM      1  C1  UNK     1       0.958  38.371 238.247  1.00  0.00     0.066 C 
ATOM      2  C5  UNK     1       0.212  39.727 238.304  1.00  0.00     0.021 C 
ENDROOT
BRANCH   1   3
ATOM      3  C2  UNK     1       1.032  37.723 236.903  1.00  0.00    -0.042 A 
ATOM      4  C3  UNK     1       0.922  36.340 236.764  1.00  0.00    -0.049 A 
ATOM      5  C6  UNK     1       0.993  35.759 235.497  1.00  0.00    -0.056 A 
ATOM      6  C8  UNK     1       0.729  35.480 237.971  1.00  0.00     0.049 C 
ATOM      7  C9  UNK     1       1.174  36.562 234.370  1.00  0.00     0.007 A 
ATOM      8  C12 UNK     1       0.879  34.280 235.320  1.00  0.00     0.049 C 
ATOM      9  C10 UNK     1       1.283  37.945 234.510  1.00  0.00     0.001 A 
ATOM     10  C7  UNK     1       1.212  38.526 235.776  1.00  0.00     0.008 A 
ENDBRANCH   1   3
BRANCH   1  11
ATOM     11  C4  UNK     1       2.330  38.503 238.927  1.00  0.00     0.033 A 
ATOM     12  N1  UNK     1       2.552  37.935 240.111  1.00  0.00    -0.354 N 
ATOM     13  C13 UNK     1       3.849  38.245 240.416  1.00  0.00     0.180 A 
ATOM     14  H11 UNK     1       1.914  37.390 240.678  1.00  0.00     0.166 HD
ATOM     15  N2  UNK     1       4.412  38.969 239.475  1.00  0.00    -0.360 N 
ATOM     16  C11 UNK     1       3.434  39.131 238.525  1.00  0.00     0.114 A 
ATOM     17  H2  UNK     1       5.365  39.331 239.455  1.00  0.00     0.166 HD
ENDBRANCH   1  11
TORSDOF 2
ENDMDL
MODEL 5
REMARK VINA RESULT:      -5.7      8.649     10.204
REMARK  2 active torsions:
REMARK  status: ('A' for Active; 'I' for Inactive)
REMARK    1  A    between atoms: C1_4  and  C2_5 
REMARK    2  A    between atoms: C1_4  and  C4_7 
ROOT
ATOM      1  C1  UNK     1       2.448  37.458 236.225  1.00  0.00     0.066 C 
ATOM      2  C5  UNK     1       3.815  37.127 236.875  1.00  0.00     0.021 C 
ENDROOT
BRANCH   1   3
ATOM      3  C2  UNK     1       1.665  36.290 235.720  1.00  0.00    -0.042 A 
ATOM      4  C3  UNK     1       1.118  36.292 234.437  1.00  0.00    -0.049 A 
ATOM      5  C6  UNK     1       0.392  35.188 233.988  1.00  0.00    -0.056 A 
ATOM      6  C8  UNK     1       1.306  37.477 233.545  1.00  0.00     0.049 C 
ATOM      7  C9  UNK     1       0.215  34.083 234.821  1.00  0.00     0.007 A 
ATOM      8  C12 UNK     1      -0.207  35.165 232.619  1.00  0.00     0.049 C 
ATOM      9  C10 UNK     1       0.764  34.081 236.103  1.00  0.00     0.001 A 
ATOM     10  C7  UNK     1       1.490  35.185 236.552  1.00  0.00     0.008 A 
ENDBRANCH   1   3
BRANCH   1  11
ATOM     11  C4  UNK     1       1.634  38.368 237.159  1.00  0.00     0.033 A 
ATOM     12  N1  UNK     1       0.866  39.333 236.658  1.00  0.00    -0.354 N 
ATOM     13  C13 UNK     1       0.298  39.936 237.746  1.00  0.00     0.180 A 
ATOM     14  H11 UNK     1       0.722  39.584 235.687  1.00  0.00     0.166 HD
ATOM     15  N2  UNK     1       0.687  39.380 238.871  1.00  0.00    -0.360 N 
ATOM     16  C11 UNK     1       1.543  38.377 238.488  1.00  0.00     0.114 A 
ATOM     17  H2  UNK     1       0.414  39.636 239.820  1.00  0.00     0.166 HD
ENDBRANCH   1  11
TORSDOF 2
ENDMDL
MODEL 6
REMARK VINA RESULT:      -5.6      9.268     11.063
REMARK  2 active torsions:
REMARK  status: ('A' for Active; 'I' for Inactive)
REMARK    1  A    between atoms: C1_4  and  C2_5 
REMARK    2  A    between atoms: C1_4  and  C4_7 
ROOT
ATOM      1  C1  UNK     1       0.867  37.002 235.401  1.00  0.00     0.066 C 
ATOM      2  C5  UNK     1       1.447  37.759 234.180  1.00  0.00     0.021 C 
ENDROOT
BRANCH   1   3
ATOM      3  C2  UNK     1       1.608  35.774 235.819  1.00  0.00    -0.042 A 
ATOM      4  C3  UNK     1       1.266  34.520 235.312  1.00  0.00    -0.049 A 
ATOM      5  C6  UNK     1       1.974  33.389 235.717  1.00  0.00    -0.056 A 
ATOM      6  C8  UNK     1       0.141  34.390 234.336  1.00  0.00     0.049 C 
ATOM      7  C9  UNK     1       3.024  33.511 236.628  1.00  0.00     0.007 A 
ATOM      8  C12 UNK     1       1.628  32.034 235.190  1.00  0.00     0.049 C 
ATOM      9  C10 UNK     1       3.365  34.765 237.135  1.00  0.00     0.001 A 
ATOM     10  C7  UNK     1       2.657  35.896 236.730  1.00  0.00     0.008 A 
ENDBRANCH   1   3
BRANCH   1  11
ATOM     11  C4  UNK     1       0.631  37.986 236.559  1.00  0.00     0.033 A 
ATOM     12  N1  UNK     1       1.107  39.227 236.494  1.00  0.00    -0.354 N 
ATOM     13  C13 UNK     1       0.723  39.816 237.667  1.00  0.00     0.180 A 
ATOM     14  H11 UNK     1       1.641  39.660 235.750  1.00  0.00     0.166 HD
ATOM     15  N2  UNK     1       0.042  38.989 238.428  1.00  0.00    -0.360 N 
ATOM     16  C11 UNK     1      -0.013  37.819 237.712  1.00  0.00     0.114 A 
ATOM     17  H2  UNK     1      -0.358  39.175 239.348  1.00  0.00     0.166 HD
ENDBRANCH   1  11
TORSDOF 2
ENDMDL
MODEL 7
REMARK VINA RESULT:      -5.6      9.884     11.814
REMARK  2 active torsions:
REMARK  status: ('A' for Active; 'I' for Inactive)
REMARK    1  A    between atoms: C1_4  and  C2_5 
REMARK    2  A    between atoms: C1_4  and  C4_7 
ROOT
ATOM      1  C1  UNK     1       1.465  39.016 237.306  1.00  0.00     0.066 C 
ATOM      2  C5  UNK     1       0.332  39.978 237.746  1.00  0.00     0.021 C 
ENDROOT
BRANCH   1   3
ATOM      3  C2  UNK     1       1.845  37.961 238.293  1.00  0.00    -0.042 A 
ATOM      4  C3  UNK     1       2.945  38.125 239.133  1.00  0.00    -0.049 A 
ATOM      5  C6  UNK     1       3.279  37.125 240.047  1.00  0.00    -0.056 A 
ATOM      6  C8  UNK     1       3.769  39.370 239.053  1.00  0.00     0.049 C 
ATOM      7  C9  UNK     1       2.511  35.962 240.121  1.00  0.00     0.007 A 
ATOM      8  C12 UNK     1       4.454  37.274 240.958  1.00  0.00     0.049 C 
ATOM      9  C10 UNK     1       1.410  35.799 239.281  1.00  0.00     0.001 A 
ATOM     10  C7  UNK     1       1.076  36.799 238.367  1.00  0.00     0.008 A 
ENDBRANCH   1   3
BRANCH   1  11
ATOM     11  C4  UNK     1       1.156  38.451 235.910  1.00  0.00     0.033 A 
ATOM     12  N1  UNK     1      -0.071  38.547 235.402  1.00  0.00    -0.354 N 
ATOM     13  C13 UNK     1       0.007  37.954 234.172  1.00  0.00     0.180 A 
ATOM     14  H11 UNK     1      -0.896  38.961 235.819  1.00  0.00     0.166 HD
ATOM     15  N2  UNK     1       1.218  37.510 233.920  1.00  0.00    -0.360 N 
ATOM     16  C11 UNK     1       1.948  37.832 235.037  1.00  0.00     0.114 A 
ATOM     17  H2  UNK     1       1.543  37.032 233.080  1.00  0.00     0.166 HD
ENDBRANCH   1  11
TORSDOF 2
ENDMDL
MODEL 8
REMARK VINA RESULT:      -5.5      8.753     10.976
REMARK  2 active torsions:
REMARK  status: ('A' for Active; 'I' for Inactive)
REMARK    1  A    between atoms: C1_4  and  C2_5 
REMARK    2  A    between atoms: C1_4  and  C4_7 
ROOT
ATOM      1  C1  UNK     1      -0.496  37.382 236.797  1.00  0.00     0.066 C 
ATOM      2  C5  UNK     1      -1.366  36.302 237.488  1.00  0.00     0.021 C 
ENDROOT
BRANCH   1   3
ATOM      3  C2  UNK     1       0.972  37.303 237.059  1.00  0.00    -0.042 A 
ATOM      4  C3  UNK     1       1.625  38.288 237.801  1.00  0.00    -0.049 A 
ATOM      5  C6  UNK     1       2.997  38.190 238.033  1.00  0.00    -0.056 A 
ATOM      6  C8  UNK     1       0.855  39.448 238.344  1.00  0.00     0.049 C 
ATOM      7  C9  UNK     1       3.716  37.108 237.524  1.00  0.00     0.007 A 
ATOM      8  C12 UNK     1       3.721  39.232 238.822  1.00  0.00     0.049 C 
ATOM      9  C10 UNK     1       3.063  36.123 236.784  1.00  0.00     0.001 A 
ATOM     10  C7  UNK     1       1.691  36.220 236.551  1.00  0.00     0.008 A 
ENDBRANCH   1   3
BRANCH   1  11
ATOM     11  C4  UNK     1      -0.837  37.445 235.299  1.00  0.00     0.033 A 
ATOM     12  N1  UNK     1      -0.522  38.521 234.581  1.00  0.00    -0.354 N 
ATOM     13  C13 UNK     1      -0.961  38.245 233.316  1.00  0.00     0.180 A 
ATOM     14  H11 UNK     1      -0.061  39.369 234.887  1.00  0.00     0.166 HD
ATOM     15  N2  UNK     1      -1.522  37.059 233.242  1.00  0.00    -0.360 N 
ATOM     16  C11 UNK     1      -1.440  36.553 234.516  1.00  0.00     0.114 A 
ATOM     17  H2  UNK     1      -1.929  36.613 232.420  1.00  0.00     0.166 HD
ENDBRANCH   1  11
TORSDOF 2
ENDMDL
MODEL 9
REMARK VINA RESULT:      -5.4      9.458     11.551
REMARK  2 active torsions:
REMARK  status: ('A' for Active; 'I' for Inactive)
REMARK    1  A    between atoms: C1_4  and  C2_5 
REMARK    2  A    between atoms: C1_4  and  C4_7 
ROOT
ATOM      1  C1  UNK     1       1.590  36.810 235.098  1.00  0.00     0.066 C 
ATOM      2  C5  UNK     1       1.097  37.378 233.743  1.00  0.00     0.021 C 
ENDROOT
BRANCH   1   3
ATOM      3  C2  UNK     1       1.569  37.761 236.250  1.00  0.00    -0.042 A 
ATOM      4  C3  UNK     1       2.660  37.869 237.113  1.00  0.00    -0.049 A 
ATOM      5  C6  UNK     1       2.617  38.765 238.181  1.00  0.00    -0.056 A 
ATOM      6  C8  UNK     1       3.873  37.023 236.894  1.00  0.00     0.049 C 
ATOM      7  C9  UNK     1       1.484  39.553 238.385  1.00  0.00     0.007 A 
ATOM      8  C12 UNK     1       3.771  38.899 239.121  1.00  0.00     0.049 C 
ATOM      9  C10 UNK     1       0.394  39.445 237.522  1.00  0.00     0.001 A 
ATOM     10  C7  UNK     1       0.437  38.549 236.454  1.00  0.00     0.008 A 
ENDBRANCH   1   3
BRANCH   1  11
ATOM     11  C4  UNK     1       0.871  35.485 235.399  1.00  0.00     0.033 A 
ATOM     12  N1  UNK     1       1.566  34.411 235.768  1.00  0.00    -0.354 N 
ATOM     13  C13 UNK     1       0.632  33.429 235.952  1.00  0.00     0.180 A 
ATOM     14  H11 UNK     1       2.567  34.319 235.891  1.00  0.00     0.166 HD
ATOM     15  N2  UNK     1      -0.585  33.862 235.710  1.00  0.00    -0.360 N 
ATOM     16  C11 UNK     1      -0.424  35.179 235.356  1.00  0.00     0.114 A 
ATOM     17  H2  UNK     1      -1.456  33.336 235.772  1.00  0.00     0.166 HD
ENDBRANCH   1  11
TORSDOF 2
ENDMDL
