MODEL 1
REMARK VINA RESULT:      -6.9      0.000      0.000
REMARK  1 active torsions:
REMARK  status: ('A' for Active; 'I' for Inactive)
REMARK    1  A    between atoms: O1_1  and  C16_18 
ROOT
ATOM      1  N1  UNK     1       0.261  38.735 237.152  1.00  0.00     0.089 N 
ATOM      2  C1  UNK     1       0.180  36.405 235.376  1.00  0.00    -0.005 C 
ATOM      3  C2  UNK     1       0.705  37.800 234.934  1.00  0.00     0.032 C 
ATOM      4  C3  UNK     1       1.329  38.503 236.155  1.00  0.00     0.232 C 
ATOM      5  C4  UNK     1      -0.900  36.644 236.466  1.00  0.00     0.045 C 
ATOM      6  C5  UNK     1      -0.485  35.736 234.141  1.00  0.00     0.015 C 
ATOM      7  C6  UNK     1       1.651  37.723 233.719  1.00  0.00     0.008 C 
ATOM      8  C7  UNK     1       1.306  35.570 236.014  1.00  0.00    -0.040 A 
ATOM      9  C8  UNK     1       2.555  37.713 236.657  1.00  0.00     0.075 C 
ATOM     10  C9  UNK     1      -0.399  37.516 237.628  1.00  0.00     0.273 C 
ATOM     11  C10 UNK     1       0.450  35.646 232.934  1.00  0.00     0.001 C 
ATOM     12  C11 UNK     1       0.985  37.019 232.540  1.00  0.00     0.001 C 
ATOM     13  C12 UNK     1       2.407  36.208 236.630  1.00  0.00    -0.049 A 
ATOM     14  C13 UNK     1       1.239  34.166 236.068  1.00  0.00     0.045 A 
ATOM     15  C14 UNK     1       0.678  39.581 238.265  1.00  0.00     0.310 C 
ATOM     16  C15 UNK     1       3.421  35.439 237.226  1.00  0.00     0.010 A 
ATOM     17  C16 UNK     1       2.249  33.414 236.671  1.00  0.00     0.068 A 
ATOM     18  C17 UNK     1       3.343  34.050 237.244  1.00  0.00     0.037 A 
ENDROOT
BRANCH  17  19
ATOM     19  O1  UNK     1       2.159  32.056 236.698  1.00  0.00    -0.356 OA
ATOM     20  C18 UNK     1       3.351  31.321 236.422  1.00  0.00     0.210 C 
ENDBRANCH  17  19
TORSDOF 1
ENDMDL
MODEL 2
REMARK VINA RESULT:      -6.4      2.634      5.137
REMARK  1 active torsions:
REMARK  status: ('A' for Active; 'I' for Inactive)
REMARK    1  A    between atoms: O1_1  and  C16_18 
ROOT
ATOM      1  N1  UNK     1       0.607  34.430 237.953  1.00  0.00     0.089 N 
ATOM      2  C1  UNK     1       0.355  37.297 237.404  1.00  0.00    -0.005 C 
ATOM      3  C2  UNK     1       1.671  36.633 237.896  1.00  0.00     0.032 C 
ATOM      4  C3  UNK     1       1.728  35.190 237.358  1.00  0.00     0.232 C 
ATOM      5  C4  UNK     1      -0.823  36.464 237.978  1.00  0.00     0.045 C 
ATOM      6  C5  UNK     1       0.297  38.732 237.996  1.00  0.00     0.015 C 
ATOM      7  C6  UNK     1       2.923  37.467 237.556  1.00  0.00     0.008 C 
ATOM      8  C7  UNK     1       0.254  37.246 235.868  1.00  0.00    -0.040 A 
ATOM      9  C8  UNK     1       1.792  35.197 235.817  1.00  0.00     0.075 C 
ATOM     10  C9  UNK     1      -0.721  34.968 237.646  1.00  0.00     0.273 C 
ATOM     11  C10 UNK     1       1.531  39.570 237.654  1.00  0.00     0.001 C 
ATOM     12  C11 UNK     1       2.814  38.884 238.111  1.00  0.00     0.001 C 
ATOM     13  C12 UNK     1       0.924  36.235 235.142  1.00  0.00    -0.049 A 
ATOM     14  C13 UNK     1      -0.557  38.146 235.154  1.00  0.00     0.045 A 
ATOM     15  C14 UNK     1       0.673  32.996 237.689  1.00  0.00     0.310 C 
ATOM     16  C15 UNK     1       0.811  36.184 233.742  1.00  0.00     0.010 A 
ATOM     17  C16 UNK     1      -0.666  38.080 233.764  1.00  0.00     0.068 A 
ATOM     18  C17 UNK     1       0.023  37.103 233.057  1.00  0.00     0.037 A 
ENDROOT
BRANCH  17  19
ATOM     19  O1  UNK     1      -1.453  38.973 233.102  1.00  0.00    -0.356 OA
ATOM     20  C18 UNK     1      -2.836  38.648 232.972  1.00  0.00     0.210 C 
ENDBRANCH  17  19
TORSDOF 1
ENDMDL
MODEL 3
REMARK VINA RESULT:      -6.1      2.067      2.909
REMARK  1 active torsions:
REMARK  status: ('A' for Active; 'I' for Inactive)
REMARK    1  A    between atoms: O1_1  and  C16_18 
ROOT
ATOM      1  N1  UNK     1       1.272  35.521 239.068  1.00  0.00     0.089 N 
ATOM      2  C1  UNK     1       0.671  35.522 236.200  1.00  0.00    -0.005 C 
ATOM      3  C2  UNK     1       1.580  36.581 236.884  1.00  0.00     0.032 C 
ATOM      4  C3  UNK     1       2.296  35.920 238.079  1.00  0.00     0.232 C 
ATOM      5  C4  UNK     1      -0.368  35.057 237.257  1.00  0.00     0.045 C 
ATOM      6  C5  UNK     1      -0.075  36.223 235.031  1.00  0.00     0.015 C 
ATOM      7  C6  UNK     1       2.542  37.269 235.894  1.00  0.00     0.008 C 
ATOM      8  C7  UNK     1       1.486  34.287 235.777  1.00  0.00    -0.040 A 
ATOM      9  C8  UNK     1       3.228  34.795 237.586  1.00  0.00     0.075 C 
ATOM     10  C9  UNK     1       0.278  34.570 238.562  1.00  0.00     0.273 C 
ATOM     11  C10 UNK     1       0.872  36.898 234.038  1.00  0.00     0.001 C 
ATOM     12  C11 UNK     1       1.783  37.905 234.734  1.00  0.00     0.001 C 
ATOM     13  C12 UNK     1       2.679  33.951 236.457  1.00  0.00    -0.049 A 
ATOM     14  C13 UNK     1       1.038  33.422 234.762  1.00  0.00     0.045 A 
ATOM     15  C14 UNK     1       1.835  35.074 240.339  1.00  0.00     0.310 C 
ATOM     16  C15 UNK     1       3.408  32.811 236.077  1.00  0.00     0.010 A 
ATOM     17  C16 UNK     1       1.767  32.289 234.399  1.00  0.00     0.068 A 
ATOM     18  C17 UNK     1       2.956  31.986 235.052  1.00  0.00     0.037 A 
ENDROOT
BRANCH  17  19
ATOM     19  O1  UNK     1       1.310  31.477 233.406  1.00  0.00    -0.356 OA
ATOM     20  C18 UNK     1       0.202  31.950 232.640  1.00  0.00     0.210 C 
ENDBRANCH  17  19
TORSDOF 1
ENDMDL
MODEL 4
REMARK VINA RESULT:      -6.1      1.858      2.426
REMARK  1 active torsions:
REMARK  status: ('A' for Active; 'I' for Inactive)
REMARK    1  A    between atoms: O1_1  and  C16_18 
ROOT
ATOM      1  N1  UNK     1      -1.000  36.549 236.432  1.00  0.00     0.089 N 
ATOM      2  C1  UNK     1      -0.375  35.174 233.921  1.00  0.00    -0.005 C 
ATOM      3  C2  UNK     1       0.008  36.654 234.205  1.00  0.00     0.032 C 
ATOM      4  C3  UNK     1       0.266  36.817 235.716  1.00  0.00     0.232 C 
ATOM      5  C4  UNK     1      -1.672  34.874 234.721  1.00  0.00     0.045 C 
ATOM      6  C5  UNK     1      -0.675  35.046 232.402  1.00  0.00     0.015 C 
ATOM      7  C6  UNK     1       1.175  37.146 233.325  1.00  0.00     0.008 C 
ATOM      8  C7  UNK     1       0.717  34.215 234.430  1.00  0.00    -0.040 A 
ATOM      9  C8  UNK     1       1.475  35.961 236.146  1.00  0.00     0.075 C 
ATOM     10  C9  UNK     1      -1.548  35.207 236.215  1.00  0.00     0.273 C 
ATOM     11  C10 UNK     1       0.482  35.522 231.522  1.00  0.00     0.001 C 
ATOM     12  C11 UNK     1       0.868  36.962 231.842  1.00  0.00     0.001 C 
ATOM     13  C12 UNK     1       1.565  34.599 235.494  1.00  0.00    -0.049 A 
ATOM     14  C13 UNK     1       0.855  32.916 233.910  1.00  0.00     0.045 A 
ATOM     15  C14 UNK     1      -0.943  36.876 237.854  1.00  0.00     0.310 C 
ATOM     16  C15 UNK     1       2.547  33.711 235.966  1.00  0.00     0.010 A 
ATOM     17  C16 UNK     1       1.829  32.040 234.393  1.00  0.00     0.068 A 
ATOM     18  C17 UNK     1       2.679  32.440 235.416  1.00  0.00     0.037 A 
ENDROOT
BRANCH  17  19
ATOM     19  O1  UNK     1       1.942  30.792 233.861  1.00  0.00    -0.356 OA
ATOM     20  C18 UNK     1       1.183  30.516 232.684  1.00  0.00     0.210 C 
ENDBRANCH  17  19
TORSDOF 1
ENDMDL
MODEL 5
REMARK VINA RESULT:      -6.1      2.797      5.479
REMARK  1 active torsions:
REMARK  status: ('A' for Active; 'I' for Inactive)
REMARK    1  A    between atoms: O1_1  and  C16_18 
ROOT
ATOM      1  N1  UNK     1      -1.553  32.418 234.630  1.00  0.00     0.089 N 
ATOM      2  C1  UNK     1       0.725  33.768 235.885  1.00  0.00    -0.005 C 
ATOM      3  C2  UNK     1       0.848  32.431 235.101  1.00  0.00     0.032 C 
ATOM      4  C3  UNK     1      -0.220  32.409 233.990  1.00  0.00     0.232 C 
ATOM      5  C4  UNK     1      -0.698  33.806 236.507  1.00  0.00     0.045 C 
ATOM      6  C5  UNK     1       1.778  33.747 237.027  1.00  0.00     0.015 C 
ATOM      7  C6  UNK     1       2.278  32.173 234.586  1.00  0.00     0.008 C 
ATOM      8  C7  UNK     1       0.848  34.975 234.937  1.00  0.00    -0.040 A 
ATOM      9  C8  UNK     1       0.045  33.538 232.973  1.00  0.00     0.075 C 
ATOM     10  C9  UNK     1      -1.813  33.587 235.474  1.00  0.00     0.273 C 
ATOM     11  C10 UNK     1       3.201  33.502 236.523  1.00  0.00     0.001 C 
ATOM     12  C11 UNK     1       3.293  32.206 235.724  1.00  0.00     0.001 C 
ATOM     13  C12 UNK     1       0.503  34.849 233.572  1.00  0.00    -0.049 A 
ATOM     14  C13 UNK     1       1.232  36.243 235.408  1.00  0.00     0.045 A 
ATOM     15  C14 UNK     1      -2.648  32.186 233.693  1.00  0.00     0.310 C 
ATOM     16  C15 UNK     1       0.601  35.961 232.717  1.00  0.00     0.010 A 
ATOM     17  C16 UNK     1       1.318  37.341 234.550  1.00  0.00     0.068 A 
ATOM     18  C17 UNK     1       1.009  37.199 233.203  1.00  0.00     0.037 A 
ENDROOT
BRANCH  17  19
ATOM     19  O1  UNK     1       1.702  38.553 235.036  1.00  0.00    -0.356 OA
ATOM     20  C18 UNK     1       1.968  38.637 236.435  1.00  0.00     0.210 C 
ENDBRANCH  17  19
TORSDOF 1
ENDMDL
MODEL 6
REMARK VINA RESULT:      -5.9      2.001      4.198
REMARK  1 active torsions:
REMARK  status: ('A' for Active; 'I' for Inactive)
REMARK    1  A    between atoms: O1_1  and  C16_18 
ROOT
ATOM      1  N1  UNK     1       2.961  36.771 237.979  1.00  0.00     0.089 N 
ATOM      2  C1  UNK     1       0.720  35.339 236.750  1.00  0.00    -0.005 C 
ATOM      3  C2  UNK     1       0.539  36.469 237.802  1.00  0.00     0.032 C 
ATOM      4  C3  UNK     1       1.700  37.472 237.655  1.00  0.00     0.232 C 
ATOM      5  C4  UNK     1       2.074  34.641 237.052  1.00  0.00     0.045 C 
ATOM      6  C5  UNK     1      -0.434  34.317 236.949  1.00  0.00     0.015 C 
ATOM      7  C6  UNK     1      -0.854  37.126 237.738  1.00  0.00     0.008 C 
ATOM      8  C7  UNK     1       0.806  35.922 235.327  1.00  0.00    -0.040 A 
ATOM      9  C8  UNK     1       1.646  38.151 236.271  1.00  0.00     0.075 C 
ATOM     10  C9  UNK     1       3.254  35.621 237.120  1.00  0.00     0.273 C 
ATOM     11  C10 UNK     1      -1.820  34.959 236.876  1.00  0.00     0.001 C 
ATOM     12  C11 UNK     1      -1.964  36.090 237.889  1.00  0.00     0.001 C 
ATOM     13  C12 UNK     1       1.265  37.243 235.123  1.00  0.00    -0.049 A 
ATOM     14  C13 UNK     1       0.507  35.143 234.195  1.00  0.00     0.045 A 
ATOM     15  C14 UNK     1       4.112  37.663 238.082  1.00  0.00     0.310 C 
ATOM     16  C15 UNK     1       1.358  37.761 233.819  1.00  0.00     0.010 A 
ATOM     17  C16 UNK     1       0.611  35.667 232.905  1.00  0.00     0.068 A 
ATOM     18  C17 UNK     1       1.031  36.978 232.717  1.00  0.00     0.037 A 
ENDROOT
BRANCH  17  19
ATOM     19  O1  UNK     1       0.304  34.890 231.830  1.00  0.00    -0.356 OA
ATOM     20  C18 UNK     1       0.298  35.523 230.551  1.00  0.00     0.210 C 
ENDBRANCH  17  19
TORSDOF 1
ENDMDL
MODEL 7
REMARK VINA RESULT:      -5.9      1.372      3.570
REMARK  1 active torsions:
REMARK  status: ('A' for Active; 'I' for Inactive)
REMARK    1  A    between atoms: O1_1  and  C16_18 
ROOT
ATOM      1  N1  UNK     1      -0.844  37.966 234.268  1.00  0.00     0.089 N 
ATOM      2  C1  UNK     1       1.551  37.617 235.919  1.00  0.00    -0.005 C 
ATOM      3  C2  UNK     1       0.306  38.426 236.378  1.00  0.00     0.032 C 
ATOM      4  C3  UNK     1      -0.951  37.807 235.734  1.00  0.00     0.232 C 
ATOM      5  C4  UNK     1       1.630  37.732 234.373  1.00  0.00     0.045 C 
ATOM      6  C5  UNK     1       2.807  38.286 236.542  1.00  0.00     0.015 C 
ATOM      7  C6  UNK     1       0.211  38.554 237.912  1.00  0.00     0.008 C 
ATOM      8  C7  UNK     1       1.396  36.124 236.265  1.00  0.00    -0.040 A 
ATOM      9  C8  UNK     1      -1.155  36.365 236.241  1.00  0.00     0.075 C 
ATOM     10  C9  UNK     1       0.328  37.318 233.671  1.00  0.00     0.273 C 
ATOM     11  C10 UNK     1       2.726  38.408 238.065  1.00  0.00     0.001 C 
ATOM     12  C11 UNK     1       1.478  39.170 238.497  1.00  0.00     0.001 C 
ATOM     13  C12 UNK     1       0.110  35.550 236.392  1.00  0.00    -0.049 A 
ATOM     14  C13 UNK     1       2.513  35.279 236.391  1.00  0.00     0.045 A 
ATOM     15  C14 UNK     1      -2.067  37.611 233.555  1.00  0.00     0.310 C 
ATOM     16  C15 UNK     1      -0.023  34.183 236.690  1.00  0.00     0.010 A 
ATOM     17  C16 UNK     1       2.367  33.921 236.679  1.00  0.00     0.068 A 
ATOM     18  C17 UNK     1       1.100  33.374 236.835  1.00  0.00     0.037 A 
ENDROOT
BRANCH  17  19
ATOM     19  O1  UNK     1       3.469  33.132 236.804  1.00  0.00    -0.356 OA
ATOM     20  C18 UNK     1       3.469  31.898 236.086  1.00  0.00     0.210 C 
ENDBRANCH  17  19
TORSDOF 1
ENDMDL
MODEL 8
REMARK VINA RESULT:      -5.9      2.326      4.543
REMARK  1 active torsions:
REMARK  status: ('A' for Active; 'I' for Inactive)
REMARK    1  A    between atoms: O1_1  and  C16_18 
ROOT
ATOM      1  N1  UNK     1      -0.983  35.529 238.416  1.00  0.00     0.089 N 
ATOM      2  C1  UNK     1       1.007  37.032 236.876  1.00  0.00    -0.005 C 
ATOM      3  C2  UNK     1       1.378  36.017 237.993  1.00  0.00     0.032 C 
ATOM      4  C3  UNK     1       0.305  34.911 238.032  1.00  0.00     0.232 C 
ATOM      5  C4  UNK     1      -0.374  37.639 237.246  1.00  0.00     0.045 C 
ATOM      6  C5  UNK     1       2.075  38.161 236.887  1.00  0.00     0.015 C 
ATOM      7  C6  UNK     1       2.815  35.476 237.852  1.00  0.00     0.008 C 
ATOM      8  C7  UNK     1       0.853  36.324 235.517  1.00  0.00    -0.040 A 
ATOM      9  C8  UNK     1       0.303  34.122 236.707  1.00  0.00     0.075 C 
ATOM     10  C9  UNK     1      -1.451  36.573 237.499  1.00  0.00     0.273 C 
ATOM     11  C10 UNK     1       3.503  37.633 236.737  1.00  0.00     0.001 C 
ATOM     12  C11 UNK     1       3.835  36.610 237.818  1.00  0.00     0.001 C 
ATOM     13  C12 UNK     1       0.501  34.956 235.461  1.00  0.00    -0.049 A 
ATOM     14  C13 UNK     1       0.983  37.024 234.305  1.00  0.00     0.045 A 
ATOM     15  C14 UNK     1      -2.034  34.556 238.694  1.00  0.00     0.310 C 
ATOM     16  C15 UNK     1       0.344  34.322 234.217  1.00  0.00     0.010 A 
ATOM     17  C16 UNK     1       0.817  36.385 233.075  1.00  0.00     0.068 A 
ATOM     18  C17 UNK     1       0.504  35.032 233.031  1.00  0.00     0.037 A 
ENDROOT
BRANCH  17  19
ATOM     19  O1  UNK     1       0.959  37.089 231.919  1.00  0.00    -0.356 OA
ATOM     20  C18 UNK     1       0.818  36.366 230.697  1.00  0.00     0.210 C 
ENDBRANCH  17  19
TORSDOF 1
ENDMDL
MODEL 9
REMARK VINA RESULT:      -5.7      2.074      4.346
REMARK  1 active torsions:
REMARK  status: ('A' for Active; 'I' for Inactive)
REMARK    1  A    between atoms: O1_1  and  C16_18 
ROOT
ATOM      1  N1  UNK     1       2.823  37.600 238.144  1.00  0.00     0.089 N 
ATOM      2  C1  UNK     1       1.421  35.354 236.887  1.00  0.00    -0.005 C 
ATOM      3  C2  UNK     1       0.881  36.110 238.133  1.00  0.00     0.032 C 
ATOM      4  C3  UNK     1       1.346  37.577 238.062  1.00  0.00     0.232 C 
ATOM      5  C4  UNK     1       2.971  35.429 236.939  1.00  0.00     0.045 C 
ATOM      6  C5  UNK     1       0.981  33.869 237.005  1.00  0.00     0.015 C 
ATOM      7  C6  UNK     1      -0.642  35.954 238.311  1.00  0.00     0.008 C 
ATOM      8  C7  UNK     1       0.968  36.044 235.587  1.00  0.00    -0.040 A 
ATOM      9  C8  UNK     1       0.731  38.272 236.829  1.00  0.00     0.075 C 
ATOM     10  C9  UNK     1       3.501  36.864 237.072  1.00  0.00     0.273 C 
ATOM     11  C10 UNK     1      -0.531  33.705 237.170  1.00  0.00     0.001 C 
ATOM     12  C11 UNK     1      -1.047  34.484 238.376  1.00  0.00     0.001 C 
ATOM     13  C12 UNK     1       0.666  37.425 235.578  1.00  0.00    -0.049 A 
ATOM     14  C13 UNK     1       0.911  35.347 234.366  1.00  0.00     0.045 A 
ATOM     15  C14 UNK     1       3.375  38.942 238.299  1.00  0.00     0.310 C 
ATOM     16  C15 UNK     1       0.271  38.050 234.383  1.00  0.00     0.010 A 
ATOM     17  C16 UNK     1       0.524  35.982 233.185  1.00  0.00     0.068 A 
ATOM     18  C17 UNK     1       0.198  37.332 233.194  1.00  0.00     0.037 A 
ENDROOT
BRANCH  17  19
ATOM     19  O1  UNK     1       0.470  35.276 232.022  1.00  0.00    -0.356 OA
ATOM     20  C18 UNK     1       0.355  36.026 230.813  1.00  0.00     0.210 C 
ENDBRANCH  17  19
TORSDOF 1
ENDMDL
