MODEL 1
REMARK VINA RESULT:      -6.8      0.000      0.000
REMARK  4 active torsions:
REMARK  status: ('A' for Active; 'I' for Inactive)
REMARK    1  A    between atoms: O1_1  and  C2_5 
REMARK    2  A    between atoms: O2_2  and  C20_23 
REMARK    3  A    between atoms: N1_3  and  C13_16 
REMARK    4  A    between atoms: C13_16  and  C14_17 
ROOT
ATOM      1  N1  UNK     1       2.539  34.796 238.354  1.00  0.00     0.096 N 
ATOM      2  C1  UNK     1       2.077  37.283 236.881  1.00  0.00     0.022 C 
ATOM      3  C2  UNK     1       1.285  36.908 238.173  1.00  0.00     0.101 C 
ATOM      4  C3  UNK     1       1.174  35.367 238.242  1.00  0.00     0.262 C 
ATOM      5  C4  UNK     1       3.489  36.637 236.961  1.00  0.00     0.048 C 
ATOM      6  C5  UNK     1       2.228  38.829 236.837  1.00  0.00     0.017 C 
ATOM      7  C6  UNK     1      -0.080  37.631 238.236  1.00  0.00     0.041 C 
ATOM      8  C7  UNK     1       1.388  36.689 235.631  1.00  0.00    -0.037 A 
ATOM      9  C8  UNK     1       3.436  35.127 237.243  1.00  0.00     0.274 C 
ATOM     10  C9  UNK     1       0.336  34.839 237.060  1.00  0.00     0.078 C 
ATOM     11  C10 UNK     1       0.882  39.558 236.903  1.00  0.00     0.001 C 
ATOM     12  C11 UNK     1       0.074  39.150 238.130  1.00  0.00     0.003 C 
ATOM     13  C12 UNK     1       0.590  35.526 235.738  1.00  0.00    -0.049 A 
ATOM     14  C17 UNK     1       1.594  37.235 234.351  1.00  0.00     0.045 A 
ATOM     15  C19 UNK     1      -0.016  34.983 234.591  1.00  0.00     0.010 A 
ATOM     16  C20 UNK     1       0.992  36.680 233.219  1.00  0.00     0.066 A 
ATOM     17  C21 UNK     1       0.182  35.558 233.340  1.00  0.00     0.037 A 
ENDROOT
BRANCH   1  18
ATOM     18  C13 UNK     1       2.551  33.366 238.640  1.00  0.00     0.277 C 
BRANCH  18  19
ATOM     19  C14 UNK     1       3.359  32.632 237.648  1.00  0.00     0.014 C 
ATOM     20  C15 UNK     1       2.587  31.567 236.842  1.00  0.00     0.006 C 
ATOM     21  C18 UNK     1       3.849  30.684 236.947  1.00  0.00     0.001 C 
ATOM     22  C16 UNK     1       4.202  31.475 238.224  1.00  0.00     0.006 C 
ENDBRANCH  18  19
ENDBRANCH   1  18
BRANCH   3  23
ATOM     23  O1  UNK     1       1.989  37.354 239.349  1.00  0.00    -0.386 OA
ATOM     24  H19 UNK     1       1.452  37.133 240.130  1.00  0.00     0.210 HD
ENDBRANCH   3  23
BRANCH  16  25
ATOM     25  O2  UNK     1       1.203  37.238 231.995  1.00  0.00    -0.361 OA
ATOM     26  H29 UNK     1       0.564  37.959 231.861  1.00  0.00     0.217 HD
ENDBRANCH  16  25
TORSDOF 4
ENDMDL
MODEL 2
REMARK VINA RESULT:      -6.4      2.621      4.843
REMARK  4 active torsions:
REMARK  status: ('A' for Active; 'I' for Inactive)
REMARK    1  A    between atoms: O1_1  and  C2_5 
REMARK    2  A    between atoms: O2_2  and  C20_23 
REMARK    3  A    between atoms: N1_3  and  C13_16 
REMARK    4  A    between atoms: C13_16  and  C14_17 
ROOT
ATOM      1  N1  UNK     1       0.897  38.579 236.130  1.00  0.00     0.096 N 
ATOM      2  C1  UNK     1       0.117  36.764 233.971  1.00  0.00     0.022 C 
ATOM      3  C2  UNK     1      -0.917  37.620 234.769  1.00  0.00     0.101 C 
ATOM      4  C3  UNK     1      -0.375  37.819 236.203  1.00  0.00     0.262 C 
ATOM      5  C4  UNK     1       1.472  37.526 233.941  1.00  0.00     0.048 C 
ATOM      6  C5  UNK     1      -0.408  36.603 232.516  1.00  0.00     0.017 C 
ATOM      7  C6  UNK     1      -2.332  36.997 234.722  1.00  0.00     0.041 C 
ATOM      8  C7  UNK     1       0.378  35.421 234.689  1.00  0.00    -0.037 A 
ATOM      9  C8  UNK     1       1.953  37.936 235.342  1.00  0.00     0.274 C 
ATOM     10  C9  UNK     1      -0.289  36.464 236.934  1.00  0.00     0.078 C 
ATOM     11  C10 UNK     1      -1.811  35.991 232.456  1.00  0.00     0.001 C 
ATOM     12  C11 UNK     1      -2.814  36.786 233.284  1.00  0.00     0.003 C 
ATOM     13  C12 UNK     1       0.200  35.310 236.088  1.00  0.00    -0.049 A 
ATOM     14  C17 UNK     1       0.872  34.301 233.995  1.00  0.00     0.045 A 
ATOM     15  C19 UNK     1       0.460  34.089 236.735  1.00  0.00     0.010 A 
ATOM     16  C20 UNK     1       1.133  33.096 234.652  1.00  0.00     0.066 A 
ATOM     17  C21 UNK     1       0.922  32.989 236.020  1.00  0.00     0.037 A 
ENDROOT
BRANCH   1  18
ATOM     18  C13 UNK     1       1.393  39.013 237.431  1.00  0.00     0.277 C 
BRANCH  18  19
ATOM     19  C14 UNK     1       2.684  38.374 237.748  1.00  0.00     0.014 C 
ATOM     20  C15 UNK     1       2.643  37.372 238.920  1.00  0.00     0.006 C 
ATOM     21  C18 UNK     1       4.023  37.922 239.337  1.00  0.00     0.001 C 
ATOM     22  C16 UNK     1       3.637  39.227 238.611  1.00  0.00     0.006 C 
ENDBRANCH  18  19
ENDBRANCH   1  18
BRANCH   3  23
ATOM     23  O1  UNK     1      -1.072  38.921 234.169  1.00  0.00    -0.386 OA
ATOM     24  H19 UNK     1      -1.918  39.297 234.466  1.00  0.00     0.210 HD
ENDBRANCH   3  23
BRANCH  16  25
ATOM     25  O2  UNK     1       1.600  32.027 233.949  1.00  0.00    -0.361 OA
ATOM     26  H29 UNK     1       2.569  31.994 234.030  1.00  0.00     0.217 HD
ENDBRANCH  16  25
TORSDOF 4
ENDMDL
MODEL 3
REMARK VINA RESULT:      -6.3      2.247      5.446
REMARK  4 active torsions:
REMARK  status: ('A' for Active; 'I' for Inactive)
REMARK    1  A    between atoms: O1_1  and  C2_5 
REMARK    2  A    between atoms: O2_2  and  C20_23 
REMARK    3  A    between atoms: N1_3  and  C13_16 
REMARK    4  A    between atoms: C13_16  and  C14_17 
ROOT
ATOM      1  N1  UNK     1       0.180  36.364 234.277  1.00  0.00     0.096 N 
ATOM      2  C1  UNK     1       0.272  37.325 237.040  1.00  0.00     0.022 C 
ATOM      3  C2  UNK     1       1.400  37.627 236.003  1.00  0.00     0.101 C 
ATOM      4  C3  UNK     1       1.469  36.446 235.007  1.00  0.00     0.262 C 
ATOM      5  C4  UNK     1      -1.074  37.176 236.277  1.00  0.00     0.048 C 
ATOM      6  C5  UNK     1       0.174  38.533 238.014  1.00  0.00     0.017 C 
ATOM      7  C6  UNK     1       2.748  37.931 236.699  1.00  0.00     0.041 C 
ATOM      8  C7  UNK     1       0.533  35.976 237.748  1.00  0.00    -0.037 A 
ATOM      9  C8  UNK     1      -0.995  36.158 235.128  1.00  0.00     0.274 C 
ATOM     10  C9  UNK     1       1.895  35.157 235.737  1.00  0.00     0.078 C 
ATOM     11  C10 UNK     1       1.503  38.848 238.705  1.00  0.00     0.001 C 
ATOM     12  C11 UNK     1       2.626  39.082 237.701  1.00  0.00     0.003 C 
ATOM     13  C12 UNK     1       1.282  34.963 237.105  1.00  0.00    -0.049 A 
ATOM     14  C17 UNK     1      -0.026  35.687 239.006  1.00  0.00     0.045 A 
ATOM     15  C19 UNK     1       1.497  33.732 237.749  1.00  0.00     0.010 A 
ATOM     16  C20 UNK     1       0.189  34.457 239.631  1.00  0.00     0.066 A 
ATOM     17  C21 UNK     1       0.955  33.482 239.006  1.00  0.00     0.037 A 
ENDROOT
BRANCH   1  18
ATOM     18  C13 UNK     1       0.201  35.426 233.161  1.00  0.00     0.277 C 
BRANCH  18  19
ATOM     19  C14 UNK     1       0.760  36.054 231.949  1.00  0.00     0.014 C 
ATOM     20  C15 UNK     1       0.043  37.343 231.495  1.00  0.00     0.006 C 
ATOM     21  C18 UNK     1       0.245  36.853 230.046  1.00  0.00     0.001 C 
ATOM     22  C16 UNK     1       0.300  35.422 230.619  1.00  0.00     0.006 C 
ENDBRANCH  18  19
ENDBRANCH   1  18
BRANCH   3  23
ATOM     23  O1  UNK     1       1.099  38.821 235.255  1.00  0.00    -0.386 OA
ATOM     24  H19 UNK     1       1.774  38.930 234.565  1.00  0.00     0.210 HD
ENDBRANCH   3  23
BRANCH  16  25
ATOM     25  O2  UNK     1      -0.359  34.212 240.854  1.00  0.00    -0.361 OA
ATOM     26  H29 UNK     1      -1.287  34.503 240.850  1.00  0.00     0.217 HD
ENDBRANCH  16  25
TORSDOF 4
ENDMDL
MODEL 4
REMARK VINA RESULT:      -6.3      1.888      4.591
REMARK  4 active torsions:
REMARK  status: ('A' for Active; 'I' for Inactive)
REMARK    1  A    between atoms: O1_1  and  C2_5 
REMARK    2  A    between atoms: O2_2  and  C20_23 
REMARK    3  A    between atoms: N1_3  and  C13_16 
REMARK    4  A    between atoms: C13_16  and  C14_17 
ROOT
ATOM      1  N1  UNK     1       1.460  37.169 238.249  1.00  0.00     0.096 N 
ATOM      2  C1  UNK     1       0.851  34.884 236.525  1.00  0.00     0.022 C 
ATOM      3  C2  UNK     1       2.249  35.092 237.188  1.00  0.00     0.101 C 
ATOM      4  C3  UNK     1       2.491  36.612 237.339  1.00  0.00     0.262 C 
ATOM      5  C4  UNK     1      -0.231  35.520 237.444  1.00  0.00     0.048 C 
ATOM      6  C5  UNK     1       0.590  33.355 236.415  1.00  0.00     0.017 C 
ATOM      7  C6  UNK     1       3.366  34.362 236.405  1.00  0.00     0.041 C 
ATOM      8  C7  UNK     1       0.776  35.626 235.172  1.00  0.00    -0.037 A 
ATOM      9  C8  UNK     1       0.078  36.983 237.799  1.00  0.00     0.274 C 
ATOM     10  C9  UNK     1       2.572  37.280 235.951  1.00  0.00     0.078 C 
ATOM     11  C10 UNK     1       1.691  32.619 235.647  1.00  0.00     0.001 C 
ATOM     12  C11 UNK     1       3.070  32.868 236.249  1.00  0.00     0.003 C 
ATOM     13  C12 UNK     1       1.581  36.764 234.933  1.00  0.00    -0.049 A 
ATOM     14  C17 UNK     1      -0.142  35.246 234.176  1.00  0.00     0.045 A 
ATOM     15  C19 UNK     1       1.491  37.444 233.706  1.00  0.00     0.010 A 
ATOM     16  C20 UNK     1      -0.226  35.935 232.964  1.00  0.00     0.066 A 
ATOM     17  C21 UNK     1       0.594  37.030 232.727  1.00  0.00     0.037 A 
ENDROOT
BRANCH   1  18
ATOM     18  C13 UNK     1       1.712  38.552 238.638  1.00  0.00     0.277 C 
BRANCH  18  19
ATOM     19  C14 UNK     1       2.636  38.622 239.785  1.00  0.00     0.014 C 
ATOM     20  C15 UNK     1       4.107  38.905 239.420  1.00  0.00     0.006 C 
ATOM     21  C18 UNK     1       4.495  37.905 240.529  1.00  0.00     0.001 C 
ATOM     22  C16 UNK     1       3.112  37.255 240.321  1.00  0.00     0.006 C 
ENDBRANCH  18  19
ENDBRANCH   1  18
BRANCH   3  23
ATOM     23  O1  UNK     1       2.283  34.505 238.503  1.00  0.00    -0.386 OA
ATOM     24  H19 UNK     1       2.635  35.165 239.125  1.00  0.00     0.210 HD
ENDBRANCH   3  23
BRANCH  16  25
ATOM     25  O2  UNK     1      -1.118  35.534 232.016  1.00  0.00    -0.361 OA
ATOM     26  H29 UNK     1      -1.923  36.075 232.090  1.00  0.00     0.217 HD
ENDBRANCH  16  25
TORSDOF 4
ENDMDL
MODEL 5
REMARK VINA RESULT:      -6.3      2.440      5.232
REMARK  4 active torsions:
REMARK  status: ('A' for Active; 'I' for Inactive)
REMARK    1  A    between atoms: O1_1  and  C2_5 
REMARK    2  A    between atoms: O2_2  and  C20_23 
REMARK    3  A    between atoms: N1_3  and  C13_16 
REMARK    4  A    between atoms: C13_16  and  C14_17 
ROOT
ATOM      1  N1  UNK     1       0.614  34.582 236.029  1.00  0.00     0.096 N 
ATOM      2  C1  UNK     1       2.173  34.812 238.495  1.00  0.00     0.022 C 
ATOM      3  C2  UNK     1       0.693  34.315 238.476  1.00  0.00     0.101 C 
ATOM      4  C3  UNK     1      -0.032  35.004 237.296  1.00  0.00     0.262 C 
ATOM      5  C4  UNK     1       2.842  34.428 237.145  1.00  0.00     0.048 C 
ATOM      6  C5  UNK     1       2.913  34.085 239.654  1.00  0.00     0.017 C 
ATOM      7  C6  UNK     1      -0.000  34.533 239.841  1.00  0.00     0.041 C 
ATOM      8  C7  UNK     1       2.227  36.353 238.595  1.00  0.00    -0.037 A 
ATOM      9  C8  UNK     1       2.039  34.911 235.927  1.00  0.00     0.274 C 
ATOM     10  C9  UNK     1      -0.096  36.527 237.526  1.00  0.00     0.078 C 
ATOM     11  C10 UNK     1       2.233  34.288 241.011  1.00  0.00     0.001 C 
ATOM     12  C11 UNK     1       0.769  33.864 240.984  1.00  0.00     0.003 C 
ATOM     13  C12 UNK     1       1.155  37.140 238.112  1.00  0.00    -0.049 A 
ATOM     14  C17 UNK     1       3.364  37.018 239.090  1.00  0.00     0.045 A 
ATOM     15  C19 UNK     1       1.223  38.542 238.189  1.00  0.00     0.010 A 
ATOM     16  C20 UNK     1       3.420  38.412 239.153  1.00  0.00     0.066 A 
ATOM     17  C21 UNK     1       2.348  39.174 238.709  1.00  0.00     0.037 A 
ENDROOT
BRANCH   1  18
ATOM     18  C13 UNK     1      -0.115  34.996 234.836  1.00  0.00     0.277 C 
BRANCH  18  19
ATOM     19  C14 UNK     1       0.790  35.611 233.847  1.00  0.00     0.014 C 
ATOM     20  C15 UNK     1       0.543  37.111 233.583  1.00  0.00     0.006 C 
ATOM     21  C18 UNK     1       0.842  36.820 232.097  1.00  0.00     0.001 C 
ATOM     22  C16 UNK     1       0.404  35.367 232.373  1.00  0.00     0.006 C 
ENDBRANCH  18  19
ENDBRANCH   1  18
BRANCH   3  23
ATOM     23  O1  UNK     1       0.636  32.891 238.261  1.00  0.00    -0.386 OA
ATOM     24  H19 UNK     1      -0.276  32.654 238.020  1.00  0.00     0.210 HD
ENDBRANCH   3  23
BRANCH  16  25
ATOM     25  O2  UNK     1       4.532  39.024 239.648  1.00  0.00    -0.361 OA
ATOM     26  H29 UNK     1       4.396  39.987 239.634  1.00  0.00     0.217 HD
ENDBRANCH  16  25
TORSDOF 4
ENDMDL
MODEL 6
REMARK VINA RESULT:      -6.0      2.933      4.753
REMARK  4 active torsions:
REMARK  status: ('A' for Active; 'I' for Inactive)
REMARK    1  A    between atoms: O1_1  and  C2_5 
REMARK    2  A    between atoms: O2_2  and  C20_23 
REMARK    3  A    between atoms: N1_3  and  C13_16 
REMARK    4  A    between atoms: C13_16  and  C14_17 
ROOT
ATOM      1  N1  UNK     1      -1.244  36.002 238.114  1.00  0.00     0.096 N 
ATOM      2  C1  UNK     1       1.662  35.721 237.906  1.00  0.00     0.022 C 
ATOM      3  C2  UNK     1       0.901  37.000 237.430  1.00  0.00     0.101 C 
ATOM      4  C3  UNK     1      -0.510  36.575 236.959  1.00  0.00     0.262 C 
ATOM      5  C4  UNK     1       0.865  35.079 239.076  1.00  0.00     0.048 C 
ATOM      6  C5  UNK     1       3.062  36.155 238.421  1.00  0.00     0.017 C 
ATOM      7  C6  UNK     1       1.704  37.777 236.361  1.00  0.00     0.041 C 
ATOM      8  C7  UNK     1       1.714  34.669 236.774  1.00  0.00    -0.037 A 
ATOM      9  C8  UNK     1      -0.610  34.831 238.725  1.00  0.00     0.274 C 
ATOM     10  C9  UNK     1      -0.406  35.657 235.725  1.00  0.00     0.078 C 
ATOM     11  C10 UNK     1       3.866  36.931 237.374  1.00  0.00     0.001 C 
ATOM     12  C11 UNK     1       3.104  38.146 236.857  1.00  0.00     0.003 C 
ATOM     13  C12 UNK     1       0.717  34.646 235.771  1.00  0.00    -0.049 A 
ATOM     14  C17 UNK     1       2.698  33.664 236.752  1.00  0.00     0.045 A 
ATOM     15  C19 UNK     1       0.763  33.673 234.758  1.00  0.00     0.010 A 
ATOM     16  C20 UNK     1       2.727  32.698 235.744  1.00  0.00     0.066 A 
ATOM     17  C21 UNK     1       1.763  32.706 234.744  1.00  0.00     0.037 A 
ENDROOT
BRANCH   1  18
ATOM     18  C13 UNK     1      -2.658  35.763 237.845  1.00  0.00     0.277 C 
BRANCH  18  19
ATOM     19  C14 UNK     1      -3.177  34.659 238.673  1.00  0.00     0.014 C 
ATOM     20  C15 UNK     1      -4.451  33.981 238.129  1.00  0.00     0.006 C 
ATOM     21  C18 UNK     1      -4.935  33.891 239.592  1.00  0.00     0.001 C 
ATOM     22  C16 UNK     1      -4.021  35.098 239.887  1.00  0.00     0.006 C 
ENDBRANCH  18  19
ENDBRANCH   1  18
BRANCH   3  23
ATOM     23  O1  UNK     1       0.743  37.933 238.517  1.00  0.00    -0.386 OA
ATOM     24  H19 UNK     1       0.841  37.448 239.354  1.00  0.00     0.210 HD
ENDBRANCH   3  23
BRANCH  16  25
ATOM     25  O2  UNK     1       3.700  31.745 235.745  1.00  0.00    -0.361 OA
ATOM     26  H29 UNK     1       4.054  31.655 236.646  1.00  0.00     0.217 HD
ENDBRANCH  16  25
TORSDOF 4
ENDMDL
MODEL 7
REMARK VINA RESULT:      -5.9      2.768      5.457
REMARK  4 active torsions:
REMARK  status: ('A' for Active; 'I' for Inactive)
REMARK    1  A    between atoms: O1_1  and  C2_5 
REMARK    2  A    between atoms: O2_2  and  C20_23 
REMARK    3  A    between atoms: N1_3  and  C13_16 
REMARK    4  A    between atoms: C13_16  and  C14_17 
ROOT
ATOM      1  N1  UNK     1      -2.094  34.889 236.003  1.00  0.00     0.096 N 
ATOM      2  C1  UNK     1      -0.116  36.546 234.621  1.00  0.00     0.022 C 
ATOM      3  C2  UNK     1      -0.728  35.256 233.987  1.00  0.00     0.101 C 
ATOM      4  C3  UNK     1      -1.067  34.271 235.130  1.00  0.00     0.262 C 
ATOM      5  C4  UNK     1      -1.164  37.168 235.586  1.00  0.00     0.048 C 
ATOM      6  C5  UNK     1       0.183  37.553 233.476  1.00  0.00     0.017 C 
ATOM      7  C6  UNK     1       0.200  34.656 232.905  1.00  0.00     0.041 C 
ATOM      8  C7  UNK     1       1.122  36.193 235.477  1.00  0.00    -0.037 A 
ATOM      9  C8  UNK     1      -1.695  36.159 236.617  1.00  0.00     0.274 C 
ATOM     10  C9  UNK     1       0.222  33.822 235.847  1.00  0.00     0.078 C 
ATOM     11  C10 UNK     1       1.097  36.970 232.395  1.00  0.00     0.001 C 
ATOM     12  C11 UNK     1       0.537  35.675 231.814  1.00  0.00     0.003 C 
ATOM     13  C12 UNK     1       1.248  34.911 236.061  1.00  0.00    -0.049 A 
ATOM     14  C17 UNK     1       2.112  37.151 235.765  1.00  0.00     0.045 A 
ATOM     15  C19 UNK     1       2.368  34.608 236.855  1.00  0.00     0.010 A 
ATOM     16  C20 UNK     1       3.215  36.839 236.561  1.00  0.00     0.066 A 
ATOM     17  C21 UNK     1       3.347  35.566 237.101  1.00  0.00     0.037 A 
ENDROOT
BRANCH   1  18
ATOM     18  C13 UNK     1      -2.650  33.971 236.991  1.00  0.00     0.277 C 
BRANCH  18  19
ATOM     19  C14 UNK     1      -3.426  34.697 238.013  1.00  0.00     0.014 C 
ATOM     20  C15 UNK     1      -3.001  34.421 239.470  1.00  0.00     0.006 C 
ATOM     21  C18 UNK     1      -4.501  34.458 239.833  1.00  0.00     0.001 C 
ATOM     22  C16 UNK     1      -4.786  34.062 238.370  1.00  0.00     0.006 C 
ENDBRANCH  18  19
ENDBRANCH   1  18
BRANCH   3  23
ATOM     23  O1  UNK     1      -1.951  35.563 233.289  1.00  0.00    -0.386 OA
ATOM     24  H19 UNK     1      -1.905  35.167 232.402  1.00  0.00     0.210 HD
ENDBRANCH   3  23
BRANCH  16  25
ATOM     25  O2  UNK     1       4.162  37.785 236.812  1.00  0.00    -0.361 OA
ATOM     26  H29 UNK     1       3.730  38.655 236.879  1.00  0.00     0.217 HD
ENDBRANCH  16  25
TORSDOF 4
ENDMDL
MODEL 8
REMARK VINA RESULT:      -5.9      2.490      3.846
REMARK  4 active torsions:
REMARK  status: ('A' for Active; 'I' for Inactive)
REMARK    1  A    between atoms: O1_1  and  C2_5 
REMARK    2  A    between atoms: O2_2  and  C20_23 
REMARK    3  A    between atoms: N1_3  and  C13_16 
REMARK    4  A    between atoms: C13_16  and  C14_17 
ROOT
ATOM      1  N1  UNK     1      -0.644  34.761 238.183  1.00  0.00     0.096 N 
ATOM      2  C1  UNK     1       1.352  36.411 236.820  1.00  0.00     0.022 C 
ATOM      3  C2  UNK     1       0.522  36.925 238.039  1.00  0.00     0.101 C 
ATOM      4  C3  UNK     1      -0.854  36.220 238.018  1.00  0.00     0.262 C 
ATOM      5  C4  UNK     1       1.525  34.872 236.953  1.00  0.00     0.048 C 
ATOM      6  C5  UNK     1       2.751  37.086 236.867  1.00  0.00     0.017 C 
ATOM      7  C6  UNK     1       0.428  38.468 238.055  1.00  0.00     0.041 C 
ATOM      8  C7  UNK     1       0.586  36.659 235.500  1.00  0.00    -0.037 A 
ATOM      9  C8  UNK     1       0.188  34.139 237.149  1.00  0.00     0.274 C 
ATOM     10  C9  UNK     1      -1.645  36.632 236.760  1.00  0.00     0.078 C 
ATOM     11  C10 UNK     1       2.672  38.615 236.890  1.00  0.00     0.001 C 
ATOM     12  C11 UNK     1       1.811  39.124 238.041  1.00  0.00     0.003 C 
ATOM     13  C12 UNK     1      -0.826  36.739 235.494  1.00  0.00    -0.049 A 
ATOM     14  C17 UNK     1       1.258  36.735 234.266  1.00  0.00     0.045 A 
ATOM     15  C19 UNK     1      -1.513  36.945 234.285  1.00  0.00     0.010 A 
ATOM     16  C20 UNK     1       0.562  36.933 233.071  1.00  0.00     0.066 A 
ATOM     17  C21 UNK     1      -0.823  37.044 233.082  1.00  0.00     0.037 A 
ENDROOT
BRANCH   1  18
ATOM     18  C13 UNK     1      -1.879  34.014 238.393  1.00  0.00     0.277 C 
BRANCH  18  19
ATOM     19  C14 UNK     1      -2.528  34.406 239.658  1.00  0.00     0.014 C 
ATOM     20  C15 UNK     1      -3.166  33.246 240.450  1.00  0.00     0.006 C 
ATOM     21  C18 UNK     1      -4.318  34.215 240.792  1.00  0.00     0.001 C 
ATOM     22  C16 UNK     1      -3.951  34.983 239.507  1.00  0.00     0.006 C 
ENDBRANCH  18  19
ENDBRANCH   1  18
BRANCH   3  23
ATOM     23  O1  UNK     1       1.175  36.586 239.278  1.00  0.00    -0.386 OA
ATOM     24  H19 UNK     1       0.617  36.894 240.013  1.00  0.00     0.210 HD
ENDBRANCH   3  23
BRANCH  16  25
ATOM     25  O2  UNK     1       1.242  37.012 231.894  1.00  0.00    -0.361 OA
ATOM     26  H29 UNK     1       0.798  37.655 231.314  1.00  0.00     0.217 HD
ENDBRANCH  16  25
TORSDOF 4
ENDMDL
MODEL 9
REMARK VINA RESULT:      -5.9      1.663      3.976
REMARK  4 active torsions:
REMARK  status: ('A' for Active; 'I' for Inactive)
REMARK    1  A    between atoms: O1_1  and  C2_5 
REMARK    2  A    between atoms: O2_2  and  C20_23 
REMARK    3  A    between atoms: N1_3  and  C13_16 
REMARK    4  A    between atoms: C13_16  and  C14_17 
ROOT
ATOM      1  N1  UNK     1       2.080  33.778 237.424  1.00  0.00     0.096 N 
ATOM      2  C1  UNK     1      -0.025  35.694 236.742  1.00  0.00     0.022 C 
ATOM      3  C2  UNK     1       0.885  35.021 235.666  1.00  0.00     0.101 C 
ATOM      4  C3  UNK     1       2.263  34.738 236.308  1.00  0.00     0.262 C 
ATOM      5  C4  UNK     1      -0.173  34.719 237.944  1.00  0.00     0.048 C 
ATOM      6  C5  UNK     1      -1.424  35.937 236.109  1.00  0.00     0.017 C 
ATOM      7  C6  UNK     1       0.965  35.870 234.375  1.00  0.00     0.041 C 
ATOM      8  C7  UNK     1       0.641  36.977 237.290  1.00  0.00    -0.037 A 
ATOM      9  C8  UNK     1       1.182  34.237 238.487  1.00  0.00     0.274 C 
ATOM     10  C9  UNK     1       2.958  36.062 236.686  1.00  0.00     0.078 C 
ATOM     11  C10 UNK     1      -1.359  36.772 234.827  1.00  0.00     0.001 C 
ATOM     12  C11 UNK     1      -0.422  36.155 233.794  1.00  0.00     0.003 C 
ATOM     13  C12 UNK     1       2.048  37.117 237.272  1.00  0.00    -0.049 A 
ATOM     14  C17 UNK     1      -0.118  37.999 237.889  1.00  0.00     0.045 A 
ATOM     15  C19 UNK     1       2.644  38.280 237.792  1.00  0.00     0.010 A 
ATOM     16  C20 UNK     1       0.488  39.145 238.408  1.00  0.00     0.066 A 
ATOM     17  C21 UNK     1       1.869  39.288 238.354  1.00  0.00     0.037 A 
ENDROOT
BRANCH   1  18
ATOM     18  C13 UNK     1       3.334  33.270 237.968  1.00  0.00     0.277 C 
BRANCH  18  19
ATOM     19  C14 UNK     1       3.336  31.796 238.011  1.00  0.00     0.014 C 
ATOM     20  C15 UNK     1       4.617  31.164 238.594  1.00  0.00     0.006 C 
ATOM     21  C18 UNK     1       4.479  30.073 237.511  1.00  0.00     0.001 C 
ATOM     22  C16 UNK     1       3.695  31.107 236.678  1.00  0.00     0.006 C 
ENDBRANCH  18  19
ENDBRANCH   1  18
BRANCH   3  23
ATOM     23  O1  UNK     1       0.327  33.763 235.241  1.00  0.00    -0.386 OA
ATOM     24  H19 UNK     1       0.201  33.202 236.025  1.00  0.00     0.210 HD
ENDBRANCH   3  23
BRANCH  16  25
ATOM     25  O2  UNK     1      -0.276  40.121 238.973  1.00  0.00    -0.361 OA
ATOM     26  H29 UNK     1      -0.538  40.756 238.284  1.00  0.00     0.217 HD
ENDBRANCH  16  25
TORSDOF 4
ENDMDL
