MODEL 1
REMARK VINA RESULT:      -7.1      0.000      0.000
REMARK  11 active torsions:
REMARK  status: ('A' for Active; 'I' for Inactive)
REMARK    1  A    between atoms: O2_2  and  C7_14 
REMARK    2  A    between atoms: O4_4  and  C12_19 
REMARK    3  A    between atoms: O4_4  and  C16_23 
REMARK       I    between atoms: N1_6  and  C5_12 
REMARK    4  A    between atoms: N2_7  and  C6_13 
REMARK    5  A    between atoms: N2_7  and  C8_15 
REMARK    6  A    between atoms: C1_8  and  C7_14 
REMARK    7  A    between atoms: C5_12  and  C6_13 
REMARK    8  A    between atoms: C8_15  and  C9_16 
REMARK    9  A    between atoms: C8_15  and  C12_19 
REMARK   10  A    between atoms: C9_16  and  C11_18 
REMARK   11  A    between atoms: C11_18  and  C13_20 
ROOT
ATOM      1  N2  UNK     1      -2.176  41.029 229.973  1.00  0.00     0.111 N 
ATOM      2  H10 UNK     1      -3.140  41.356 230.022  1.00  0.00     0.318 HD
ENDROOT
BRANCH   1   3
ATOM      3  C6  UNK     1      -1.484  41.663 228.864  1.00  0.00     0.308 C 
ATOM      4  C10 UNK     1      -2.466  42.164 227.823  1.00  0.00     0.053 C 
BRANCH   3   5
ATOM      5  C5  UNK     1      -0.706  42.820 229.437  1.00  0.00     0.253 C 
ATOM      6  O1  UNK     1      -1.185  43.505 230.343  1.00  0.00    -0.271 OA
ATOM      7  N1  UNK     1       0.540  43.042 228.871  1.00  0.00    -0.336 N 
ATOM      8  C1  UNK     1       1.485  44.009 229.412  1.00  0.00     0.185 C 
ATOM      9  C4  UNK     1       1.146  42.256 227.799  1.00  0.00     0.127 C 
ATOM     10  C2  UNK     1       2.831  43.612 228.818  1.00  0.00     0.038 C 
ATOM     11  C3  UNK     1       2.454  42.967 227.485  1.00  0.00     0.022 C 
BRANCH   8  12
ATOM     12  C7  UNK     1       1.047  45.364 228.942  1.00  0.00     0.163 C 
ATOM     13  O3  UNK     1       1.121  45.765 227.788  1.00  0.00    -0.648 OA
BRANCH  12  14
ATOM     14  O2  UNK     1       0.557  46.094 229.972  1.00  0.00    -0.775 OA
ATOM     15  H18 UNK     1      -0.225  46.624 229.707  1.00  0.00     0.167 HD
ENDBRANCH  12  14
ENDBRANCH   8  12
ENDBRANCH   3   5
ENDBRANCH   1   3
BRANCH   1  16
ATOM     16  C8  UNK     1      -2.139  39.576 229.853  1.00  0.00     0.320 C 
BRANCH  16  17
ATOM     17  C9  UNK     1      -0.697  39.047 229.809  1.00  0.00     0.051 C 
BRANCH  17  18
ATOM     18  C11 UNK     1      -0.548  37.586 229.358  1.00  0.00     0.041 C 
BRANCH  18  19
ATOM     19  C13 UNK     1      -0.239  36.631 230.482  1.00  0.00    -0.058 A 
ATOM     20  C14 UNK     1       0.590  37.041 231.516  1.00  0.00     0.007 A 
ATOM     21  C17 UNK     1       0.876  36.158 232.557  1.00  0.00     0.001 A 
ATOM     22  C19 UNK     1       0.330  34.874 232.552  1.00  0.00     0.000 A 
ATOM     23  C18 UNK     1      -0.502  34.475 231.506  1.00  0.00     0.001 A 
ATOM     24  C15 UNK     1      -0.788  35.358 230.465  1.00  0.00     0.007 A 
ENDBRANCH  18  19
ENDBRANCH  17  18
ENDBRANCH  16  17
BRANCH  16  25
ATOM     25  C12 UNK     1      -2.859  38.998 231.060  1.00  0.00     0.292 C 
ATOM     26  O5  UNK     1      -3.919  38.387 231.027  1.00  0.00    -0.263 OA
BRANCH  25  27
ATOM     27  O4  UNK     1      -2.128  39.261 232.186  1.00  0.00    -0.320 OA
BRANCH  27  28
ATOM     28  C16 UNK     1      -2.568  38.599 233.376  1.00  0.00     0.174 C 
ATOM     29  C20 UNK     1      -1.371  38.332 234.263  1.00  0.00     0.034 C 
ENDBRANCH  27  28
ENDBRANCH  25  27
ENDBRANCH  16  25
ENDBRANCH   1  16
TORSDOF 11
ENDMDL
MODEL 2
REMARK VINA RESULT:      -6.8      1.208      2.165
REMARK  11 active torsions:
REMARK  status: ('A' for Active; 'I' for Inactive)
REMARK    1  A    between atoms: O2_2  and  C7_14 
REMARK    2  A    between atoms: O4_4  and  C12_19 
REMARK    3  A    between atoms: O4_4  and  C16_23 
REMARK       I    between atoms: N1_6  and  C5_12 
REMARK    4  A    between atoms: N2_7  and  C6_13 
REMARK    5  A    between atoms: N2_7  and  C8_15 
REMARK    6  A    between atoms: C1_8  and  C7_14 
REMARK    7  A    between atoms: C5_12  and  C6_13 
REMARK    8  A    between atoms: C8_15  and  C9_16 
REMARK    9  A    between atoms: C8_15  and  C12_19 
REMARK   10  A    between atoms: C9_16  and  C11_18 
REMARK   11  A    between atoms: C11_18  and  C13_20 
ROOT
ATOM      1  N2  UNK     1      -1.891  41.323 230.016  1.00  0.00     0.111 N 
ATOM      2  H10 UNK     1      -2.754  41.820 230.234  1.00  0.00     0.318 HD
ENDROOT
BRANCH   1   3
ATOM      3  C6  UNK     1      -1.198  41.974 228.918  1.00  0.00     0.308 C 
ATOM      4  C10 UNK     1      -2.163  42.357 227.814  1.00  0.00     0.053 C 
BRANCH   3   5
ATOM      5  C5  UNK     1      -0.546  43.210 229.484  1.00  0.00     0.253 C 
ATOM      6  O1  UNK     1      -1.140  43.904 230.311  1.00  0.00    -0.271 OA
ATOM      7  N1  UNK     1       0.724  43.490 229.004  1.00  0.00    -0.336 N 
ATOM      8  C1  UNK     1       1.557  44.547 229.561  1.00  0.00     0.185 C 
ATOM      9  C4  UNK     1       1.465  42.695 228.027  1.00  0.00     0.127 C 
ATOM     10  C2  UNK     1       2.969  44.215 229.095  1.00  0.00     0.038 C 
ATOM     11  C3  UNK     1       2.744  43.480 227.775  1.00  0.00     0.022 C 
BRANCH   8  12
ATOM     12  C7  UNK     1       1.070  45.843 228.983  1.00  0.00     0.163 C 
ATOM     13  O3  UNK     1       1.180  46.174 227.811  1.00  0.00    -0.648 OA
BRANCH  12  14
ATOM     14  O2  UNK     1       0.490  46.606 229.941  1.00  0.00    -0.775 OA
ATOM     15  H18 UNK     1       0.586  46.210 230.833  1.00  0.00     0.167 HD
ENDBRANCH  12  14
ENDBRANCH   8  12
ENDBRANCH   3   5
ENDBRANCH   1   3
BRANCH   1  16
ATOM     16  C8  UNK     1      -2.175  39.927 229.704  1.00  0.00     0.320 C 
BRANCH  16  17
ATOM     17  C9  UNK     1      -1.568  38.977 230.748  1.00  0.00     0.051 C 
BRANCH  17  18
ATOM     18  C11 UNK     1      -0.446  38.065 230.230  1.00  0.00     0.041 C 
BRANCH  18  19
ATOM     19  C13 UNK     1      -0.161  36.884 231.123  1.00  0.00    -0.058 A 
ATOM     20  C14 UNK     1      -0.533  35.613 230.710  1.00  0.00     0.007 A 
ATOM     21  C17 UNK     1      -0.269  34.520 231.535  1.00  0.00     0.001 A 
ATOM     22  C19 UNK     1       0.365  34.711 232.764  1.00  0.00     0.000 A 
ATOM     23  C18 UNK     1       0.734  35.994 233.166  1.00  0.00     0.001 A 
ATOM     24  C15 UNK     1       0.470  37.087 232.341  1.00  0.00     0.007 A 
ENDBRANCH  18  19
ENDBRANCH  17  18
ENDBRANCH  16  17
BRANCH  16  25
ATOM     25  C12 UNK     1      -3.686  39.761 229.678  1.00  0.00     0.292 C 
ATOM     26  O5  UNK     1      -4.500  40.671 229.764  1.00  0.00    -0.263 OA
BRANCH  25  27
ATOM     27  O4  UNK     1      -3.988  38.435 229.534  1.00  0.00    -0.320 OA
BRANCH  27  28
ATOM     28  C16 UNK     1      -4.108  37.972 228.185  1.00  0.00     0.174 C 
ATOM     29  C20 UNK     1      -3.154  36.815 227.974  1.00  0.00     0.034 C 
ENDBRANCH  27  28
ENDBRANCH  25  27
ENDBRANCH  16  25
ENDBRANCH   1  16
TORSDOF 11
ENDMDL
MODEL 3
REMARK VINA RESULT:      -6.4      1.518      2.491
REMARK  11 active torsions:
REMARK  status: ('A' for Active; 'I' for Inactive)
REMARK    1  A    between atoms: O2_2  and  C7_14 
REMARK    2  A    between atoms: O4_4  and  C12_19 
REMARK    3  A    between atoms: O4_4  and  C16_23 
REMARK       I    between atoms: N1_6  and  C5_12 
REMARK    4  A    between atoms: N2_7  and  C6_13 
REMARK    5  A    between atoms: N2_7  and  C8_15 
REMARK    6  A    between atoms: C1_8  and  C7_14 
REMARK    7  A    between atoms: C5_12  and  C6_13 
REMARK    8  A    between atoms: C8_15  and  C9_16 
REMARK    9  A    between atoms: C8_15  and  C12_19 
REMARK   10  A    between atoms: C9_16  and  C11_18 
REMARK   11  A    between atoms: C11_18  and  C13_20 
ROOT
ATOM      1  N2  UNK     1      -2.107  40.795 230.350  1.00  0.00     0.111 N 
ATOM      2  H10 UNK     1      -3.123  40.855 230.292  1.00  0.00     0.318 HD
ENDROOT
BRANCH   1   3
ATOM      3  C6  UNK     1      -1.500  41.370 229.162  1.00  0.00     0.308 C 
ATOM      4  C10 UNK     1      -2.552  41.742 228.137  1.00  0.00     0.053 C 
BRANCH   3   5
ATOM      5  C5  UNK     1      -0.754  42.603 229.605  1.00  0.00     0.253 C 
ATOM      6  O1  UNK     1      -1.266  43.386 230.407  1.00  0.00    -0.271 OA
ATOM      7  N1  UNK     1       0.502  42.777 229.044  1.00  0.00    -0.336 N 
ATOM      8  C1  UNK     1       1.418  43.821 229.482  1.00  0.00     0.185 C 
ATOM      9  C4  UNK     1       1.146  41.876 228.092  1.00  0.00     0.127 C 
ATOM     10  C2  UNK     1       2.784  43.378 228.972  1.00  0.00     0.038 C 
ATOM     11  C3  UNK     1       2.450  42.567 227.721  1.00  0.00     0.022 C 
BRANCH   8  12
ATOM     12  C7  UNK     1       0.971  45.099 228.837  1.00  0.00     0.163 C 
ATOM     13  O3  UNK     1       0.872  45.280 227.632  1.00  0.00    -0.648 OA
BRANCH  12  14
ATOM     14  O2  UNK     1       0.692  46.036 229.775  1.00  0.00    -0.775 OA
ATOM     15  H18 UNK     1       1.213  45.902 230.594  1.00  0.00     0.167 HD
ENDBRANCH  12  14
ENDBRANCH   8  12
ENDBRANCH   3   5
ENDBRANCH   1   3
BRANCH   1  16
ATOM     16  C8  UNK     1      -1.690  39.410 230.535  1.00  0.00     0.320 C 
BRANCH  16  17
ATOM     17  C9  UNK     1      -1.570  39.048 232.024  1.00  0.00     0.051 C 
BRANCH  17  18
ATOM     18  C11 UNK     1      -0.874  37.711 232.319  1.00  0.00     0.041 C 
BRANCH  18  19
ATOM     19  C13 UNK     1      -0.184  37.666 233.659  1.00  0.00    -0.058 A 
ATOM     20  C14 UNK     1      -0.939  37.783 234.816  1.00  0.00     0.007 A 
ATOM     21  C17 UNK     1      -0.301  37.741 236.056  1.00  0.00     0.001 A 
ATOM     22  C19 UNK     1       1.083  37.583 236.124  1.00  0.00     0.000 A 
ATOM     23  C18 UNK     1       1.830  37.466 234.951  1.00  0.00     0.001 A 
ATOM     24  C15 UNK     1       1.192  37.508 233.711  1.00  0.00     0.007 A 
ENDBRANCH  18  19
ENDBRANCH  17  18
ENDBRANCH  16  17
BRANCH  16  25
ATOM     25  C12 UNK     1      -2.734  38.525 229.875  1.00  0.00     0.292 C 
ATOM     26  O5  UNK     1      -2.627  38.004 228.773  1.00  0.00    -0.263 OA
BRANCH  25  27
ATOM     27  O4  UNK     1      -3.806  38.396 230.715  1.00  0.00    -0.320 OA
BRANCH  27  28
ATOM     28  C16 UNK     1      -4.319  37.067 230.860  1.00  0.00     0.174 C 
ATOM     29  C20 UNK     1      -4.713  36.847 232.305  1.00  0.00     0.034 C 
ENDBRANCH  27  28
ENDBRANCH  25  27
ENDBRANCH  16  25
ENDBRANCH   1  16
TORSDOF 11
ENDMDL
MODEL 4
REMARK VINA RESULT:      -6.2      5.984      9.374
REMARK  11 active torsions:
REMARK  status: ('A' for Active; 'I' for Inactive)
REMARK    1  A    between atoms: O2_2  and  C7_14 
REMARK    2  A    between atoms: O4_4  and  C12_19 
REMARK    3  A    between atoms: O4_4  and  C16_23 
REMARK       I    between atoms: N1_6  and  C5_12 
REMARK    4  A    between atoms: N2_7  and  C6_13 
REMARK    5  A    between atoms: N2_7  and  C8_15 
REMARK    6  A    between atoms: C1_8  and  C7_14 
REMARK    7  A    between atoms: C5_12  and  C6_13 
REMARK    8  A    between atoms: C8_15  and  C9_16 
REMARK    9  A    between atoms: C8_15  and  C12_19 
REMARK   10  A    between atoms: C9_16  and  C11_18 
REMARK   11  A    between atoms: C11_18  and  C13_20 
ROOT
ATOM      1  N2  UNK     1       1.162  36.515 239.127  1.00  0.00     0.111 N 
ATOM      2  H10 UNK     1       0.527  36.607 239.920  1.00  0.00     0.318 HD
ENDROOT
BRANCH   1   3
ATOM      3  C6  UNK     1       0.474  35.918 237.996  1.00  0.00     0.308 C 
ATOM      4  C10 UNK     1      -0.821  35.260 238.431  1.00  0.00     0.053 C 
BRANCH   3   5
ATOM      5  C5  UNK     1       0.184  37.032 237.022  1.00  0.00     0.253 C 
ATOM      6  O1  UNK     1      -0.186  38.134 237.430  1.00  0.00    -0.271 OA
ATOM      7  N1  UNK     1       0.353  36.715 235.684  1.00  0.00    -0.336 N 
ATOM      8  C1  UNK     1       0.273  37.713 234.626  1.00  0.00     0.185 C 
ATOM      9  C4  UNK     1       0.789  35.424 235.157  1.00  0.00     0.127 C 
ATOM     10  C2  UNK     1       0.958  37.066 233.428  1.00  0.00     0.038 C 
ATOM     11  C3  UNK     1       0.715  35.573 233.645  1.00  0.00     0.022 C 
BRANCH   8  12
ATOM     12  C7  UNK     1      -1.181  37.967 234.366  1.00  0.00     0.163 C 
ATOM     13  O3  UNK     1      -2.097  37.245 234.736  1.00  0.00    -0.648 OA
BRANCH  12  14
ATOM     14  O2  UNK     1      -1.350  39.110 233.659  1.00  0.00    -0.775 OA
ATOM     15  H18 UNK     1      -0.731  39.166 232.900  1.00  0.00     0.167 HD
ENDBRANCH  12  14
ENDBRANCH   8  12
ENDBRANCH   3   5
ENDBRANCH   1   3
BRANCH   1  16
ATOM     16  C8  UNK     1       2.333  35.731 239.503  1.00  0.00     0.320 C 
BRANCH  16  17
ATOM     17  C9  UNK     1       3.071  35.186 238.270  1.00  0.00     0.051 C 
BRANCH  17  18
ATOM     18  C11 UNK     1       3.369  33.679 238.298  1.00  0.00     0.041 C 
BRANCH  18  19
ATOM     19  C13 UNK     1       2.726  32.911 237.172  1.00  0.00    -0.058 A 
ATOM     20  C14 UNK     1       3.444  32.680 236.008  1.00  0.00     0.007 A 
ATOM     21  C17 UNK     1       2.849  31.968 234.966  1.00  0.00     0.001 A 
ATOM     22  C19 UNK     1       1.544  31.495 235.101  1.00  0.00     0.000 A 
ATOM     23  C18 UNK     1       0.834  31.733 236.277  1.00  0.00     0.001 A 
ATOM     24  C15 UNK     1       1.428  32.445 237.319  1.00  0.00     0.007 A 
ENDBRANCH  18  19
ENDBRANCH  17  18
ENDBRANCH  16  17
BRANCH  16  25
ATOM     25  C12 UNK     1       3.259  36.640 240.294  1.00  0.00     0.292 C 
ATOM     26  O5  UNK     1       4.220  36.270 240.955  1.00  0.00    -0.263 OA
BRANCH  25  27
ATOM     27  O4  UNK     1       2.853  37.937 240.139  1.00  0.00    -0.320 OA
BRANCH  27  28
ATOM     28  C16 UNK     1       3.809  38.814 239.534  1.00  0.00     0.174 C 
ATOM     29  C20 UNK     1       3.400  39.075 238.100  1.00  0.00     0.034 C 
ENDBRANCH  27  28
ENDBRANCH  25  27
ENDBRANCH  16  25
ENDBRANCH   1  16
TORSDOF 11
ENDMDL
MODEL 5
REMARK VINA RESULT:      -6.1      6.604     10.513
REMARK  11 active torsions:
REMARK  status: ('A' for Active; 'I' for Inactive)
REMARK    1  A    between atoms: O2_2  and  C7_14 
REMARK    2  A    between atoms: O4_4  and  C12_19 
REMARK    3  A    between atoms: O4_4  and  C16_23 
REMARK       I    between atoms: N1_6  and  C5_12 
REMARK    4  A    between atoms: N2_7  and  C6_13 
REMARK    5  A    between atoms: N2_7  and  C8_15 
REMARK    6  A    between atoms: C1_8  and  C7_14 
REMARK    7  A    between atoms: C5_12  and  C6_13 
REMARK    8  A    between atoms: C8_15  and  C9_16 
REMARK    9  A    between atoms: C8_15  and  C12_19 
REMARK   10  A    between atoms: C9_16  and  C11_18 
REMARK   11  A    between atoms: C11_18  and  C13_20 
ROOT
ATOM      1  N2  UNK     1       0.740  36.802 238.446  1.00  0.00     0.111 N 
ATOM      2  H10 UNK     1       0.577  37.290 239.327  1.00  0.00     0.318 HD
ENDROOT
BRANCH   1   3
ATOM      3  C6  UNK     1       1.593  35.646 238.663  1.00  0.00     0.308 C 
ATOM      4  C10 UNK     1       1.816  35.402 240.142  1.00  0.00     0.053 C 
BRANCH   3   5
ATOM      5  C5  UNK     1       0.892  34.463 238.045  1.00  0.00     0.253 C 
ATOM      6  O1  UNK     1      -0.290  34.234 238.307  1.00  0.00    -0.271 OA
ATOM      7  N1  UNK     1       1.666  33.684 237.200  1.00  0.00    -0.336 N 
ATOM      8  C1  UNK     1       1.106  32.604 236.398  1.00  0.00     0.185 C 
ATOM      9  C4  UNK     1       3.067  33.919 236.861  1.00  0.00     0.127 C 
ATOM     10  C2  UNK     1       2.149  32.342 235.318  1.00  0.00     0.038 C 
ATOM     11  C3  UNK     1       3.462  32.736 235.990  1.00  0.00     0.022 C 
BRANCH   8  12
ATOM     12  C7  UNK     1       0.935  31.423 237.305  1.00  0.00     0.163 C 
ATOM     13  O3  UNK     1       1.842  30.704 237.701  1.00  0.00    -0.648 OA
BRANCH  12  14
ATOM     14  O2  UNK     1      -0.369  31.253 237.630  1.00  0.00    -0.775 OA
ATOM     15  H18 UNK     1      -0.941  31.935 237.219  1.00  0.00     0.167 HD
ENDBRANCH  12  14
ENDBRANCH   8  12
ENDBRANCH   3   5
ENDBRANCH   1   3
BRANCH   1  16
ATOM     16  C8  UNK     1       1.323  37.709 237.464  1.00  0.00     0.320 C 
BRANCH  16  17
ATOM     17  C9  UNK     1       0.536  37.699 236.145  1.00  0.00     0.051 C 
BRANCH  17  18
ATOM     18  C11 UNK     1       1.391  37.762 234.871  1.00  0.00     0.041 C 
BRANCH  18  19
ATOM     19  C13 UNK     1       0.982  36.769 233.813  1.00  0.00    -0.058 A 
ATOM     20  C14 UNK     1       0.494  35.529 234.196  1.00  0.00     0.007 A 
ATOM     21  C17 UNK     1       0.114  34.610 233.217  1.00  0.00     0.001 A 
ATOM     22  C19 UNK     1       0.226  34.943 231.867  1.00  0.00     0.000 A 
ATOM     23  C18 UNK     1       0.718  36.194 231.496  1.00  0.00     0.001 A 
ATOM     24  C15 UNK     1       1.098  37.113 232.474  1.00  0.00     0.007 A 
ENDBRANCH  18  19
ENDBRANCH  17  18
ENDBRANCH  16  17
BRANCH  16  25
ATOM     25  C12 UNK     1       1.303  39.106 238.061  1.00  0.00     0.292 C 
ATOM     26  O5  UNK     1       0.588  40.027 237.686  1.00  0.00    -0.263 OA
BRANCH  25  27
ATOM     27  O4  UNK     1       2.202  39.167 239.091  1.00  0.00    -0.320 OA
BRANCH  27  28
ATOM     28  C16 UNK     1       3.577  39.038 238.716  1.00  0.00     0.174 C 
ATOM     29  C20 UNK     1       4.324  38.325 239.823  1.00  0.00     0.034 C 
ENDBRANCH  27  28
ENDBRANCH  25  27
ENDBRANCH  16  25
ENDBRANCH   1  16
TORSDOF 11
ENDMDL
MODEL 6
REMARK VINA RESULT:      -6.1      4.746      8.409
REMARK  11 active torsions:
REMARK  status: ('A' for Active; 'I' for Inactive)
REMARK    1  A    between atoms: O2_2  and  C7_14 
REMARK    2  A    between atoms: O4_4  and  C12_19 
REMARK    3  A    between atoms: O4_4  and  C16_23 
REMARK       I    between atoms: N1_6  and  C5_12 
REMARK    4  A    between atoms: N2_7  and  C6_13 
REMARK    5  A    between atoms: N2_7  and  C8_15 
REMARK    6  A    between atoms: C1_8  and  C7_14 
REMARK    7  A    between atoms: C5_12  and  C6_13 
REMARK    8  A    between atoms: C8_15  and  C9_16 
REMARK    9  A    between atoms: C8_15  and  C12_19 
REMARK   10  A    between atoms: C9_16  and  C11_18 
REMARK   11  A    between atoms: C11_18  and  C13_20 
ROOT
ATOM      1  N2  UNK     1      -1.134  36.833 235.595  1.00  0.00     0.111 N 
ATOM      2  H10 UNK     1      -2.091  36.509 235.457  1.00  0.00     0.318 HD
ENDROOT
BRANCH   1   3
ATOM      3  C6  UNK     1      -0.857  36.999 237.011  1.00  0.00     0.308 C 
ATOM      4  C10 UNK     1      -2.019  36.512 237.854  1.00  0.00     0.053 C 
BRANCH   3   5
ATOM      5  C5  UNK     1       0.376  36.186 237.315  1.00  0.00     0.253 C 
ATOM      6  O1  UNK     1       0.311  34.957 237.375  1.00  0.00    -0.271 OA
ATOM      7  N1  UNK     1       1.536  36.914 237.523  1.00  0.00    -0.336 N 
ATOM      8  C1  UNK     1       2.842  36.284 237.665  1.00  0.00     0.185 C 
ATOM      9  C4  UNK     1       1.657  38.369 237.461  1.00  0.00     0.127 C 
ATOM     10  C2  UNK     1       3.844  37.404 237.407  1.00  0.00     0.038 C 
ATOM     11  C3  UNK     1       3.097  38.658 237.858  1.00  0.00     0.022 C 
BRANCH   8  12
ATOM     12  C7  UNK     1       2.932  35.769 239.070  1.00  0.00     0.163 C 
ATOM     13  O3  UNK     1       2.569  36.378 240.067  1.00  0.00    -0.648 OA
BRANCH  12  14
ATOM     14  O2  UNK     1       3.477  34.529 239.092  1.00  0.00    -0.775 OA
ATOM     15  H18 UNK     1       4.109  34.419 239.834  1.00  0.00     0.167 HD
ENDBRANCH  12  14
ENDBRANCH   8  12
ENDBRANCH   3   5
ENDBRANCH   1   3
BRANCH   1  16
ATOM     16  C8  UNK     1      -0.909  38.076 234.867  1.00  0.00     0.320 C 
BRANCH  16  17
ATOM     17  C9  UNK     1       0.441  38.067 234.131  1.00  0.00     0.051 C 
BRANCH  17  18
ATOM     18  C11 UNK     1       1.037  36.676 233.874  1.00  0.00     0.041 C 
BRANCH  18  19
ATOM     19  C13 UNK     1       0.680  36.101 232.526  1.00  0.00    -0.058 A 
ATOM     20  C14 UNK     1      -0.042  34.919 232.461  1.00  0.00     0.007 A 
ATOM     21  C17 UNK     1      -0.374  34.387 231.215  1.00  0.00     0.001 A 
ATOM     22  C19 UNK     1       0.021  35.044 230.049  1.00  0.00     0.000 A 
ATOM     23  C18 UNK     1       0.747  36.232 230.129  1.00  0.00     0.001 A 
ATOM     24  C15 UNK     1       1.079  36.764 231.375  1.00  0.00     0.007 A 
ENDBRANCH  18  19
ENDBRANCH  17  18
ENDBRANCH  16  17
BRANCH  16  25
ATOM     25  C12 UNK     1      -2.038  38.229 233.861  1.00  0.00     0.292 C 
ATOM     26  O5  UNK     1      -3.185  37.832 234.018  1.00  0.00    -0.263 OA
BRANCH  25  27
ATOM     27  O4  UNK     1      -1.569  38.889 232.759  1.00  0.00    -0.320 OA
BRANCH  27  28
ATOM     28  C16 UNK     1      -2.197  38.543 231.519  1.00  0.00     0.174 C 
ATOM     29  C20 UNK     1      -1.470  39.238 230.388  1.00  0.00     0.034 C 
ENDBRANCH  27  28
ENDBRANCH  25  27
ENDBRANCH  16  25
ENDBRANCH   1  16
TORSDOF 11
ENDMDL
MODEL 7
REMARK VINA RESULT:      -6.1      5.806      9.394
REMARK  11 active torsions:
REMARK  status: ('A' for Active; 'I' for Inactive)
REMARK    1  A    between atoms: O2_2  and  C7_14 
REMARK    2  A    between atoms: O4_4  and  C12_19 
REMARK    3  A    between atoms: O4_4  and  C16_23 
REMARK       I    between atoms: N1_6  and  C5_12 
REMARK    4  A    between atoms: N2_7  and  C6_13 
REMARK    5  A    between atoms: N2_7  and  C8_15 
REMARK    6  A    between atoms: C1_8  and  C7_14 
REMARK    7  A    between atoms: C5_12  and  C6_13 
REMARK    8  A    between atoms: C8_15  and  C9_16 
REMARK    9  A    between atoms: C8_15  and  C12_19 
REMARK   10  A    between atoms: C9_16  and  C11_18 
REMARK   11  A    between atoms: C11_18  and  C13_20 
ROOT
ATOM      1  N2  UNK     1       1.021  33.552 236.577  1.00  0.00     0.111 N 
ATOM      2  H10 UNK     1       0.856  32.615 236.945  1.00  0.00     0.318 HD
ENDROOT
BRANCH   1   3
ATOM      3  C6  UNK     1      -0.063  33.942 235.692  1.00  0.00     0.308 C 
ATOM      4  C10 UNK     1      -1.412  33.707 236.343  1.00  0.00     0.053 C 
BRANCH   3   5
ATOM      5  C5  UNK     1       0.118  35.410 235.399  1.00  0.00     0.253 C 
ATOM      6  O1  UNK     1       0.108  36.233 236.316  1.00  0.00    -0.271 OA
ATOM      7  N1  UNK     1       0.277  35.738 234.062  1.00  0.00    -0.336 N 
ATOM      8  C1  UNK     1       0.624  37.082 233.621  1.00  0.00     0.185 C 
ATOM      9  C4  UNK     1       0.296  34.796 232.945  1.00  0.00     0.127 C 
ATOM     10  C2  UNK     1       1.145  36.903 232.200  1.00  0.00     0.038 C 
ATOM     11  C3  UNK     1       0.398  35.667 231.702  1.00  0.00     0.022 C 
BRANCH   8  12
ATOM     12  C7  UNK     1      -0.635  37.896 233.654  1.00  0.00     0.163 C 
ATOM     13  O3  UNK     1      -1.552  37.804 232.850  1.00  0.00    -0.648 OA
BRANCH  12  14
ATOM     14  O2  UNK     1      -0.621  38.758 234.699  1.00  0.00    -0.775 OA
ATOM     15  H18 UNK     1      -1.496  39.178 234.839  1.00  0.00     0.167 HD
ENDBRANCH  12  14
ENDBRANCH   8  12
ENDBRANCH   3   5
ENDBRANCH   1   3
BRANCH   1  16
ATOM     16  C8  UNK     1       2.305  33.608 235.890  1.00  0.00     0.320 C 
BRANCH  16  17
ATOM     17  C9  UNK     1       3.378  34.299 236.747  1.00  0.00     0.051 C 
BRANCH  17  18
ATOM     18  C11 UNK     1       2.920  34.728 238.149  1.00  0.00     0.041 C 
BRANCH  18  19
ATOM     19  C13 UNK     1       3.115  36.197 238.429  1.00  0.00    -0.058 A 
ATOM     20  C14 UNK     1       3.093  36.648 239.740  1.00  0.00     0.007 A 
ATOM     21  C17 UNK     1       3.275  38.007 240.000  1.00  0.00     0.001 A 
ATOM     22  C19 UNK     1       3.478  38.898 238.945  1.00  0.00     0.000 A 
ATOM     23  C18 UNK     1       3.499  38.430 237.632  1.00  0.00     0.001 A 
ATOM     24  C15 UNK     1       3.316  37.072 237.372  1.00  0.00     0.007 A 
ENDBRANCH  18  19
ENDBRANCH  17  18
ENDBRANCH  16  17
BRANCH  16  25
ATOM     25  C12 UNK     1       2.730  32.179 235.593  1.00  0.00     0.292 C 
ATOM     26  O5  UNK     1       3.315  31.809 234.584  1.00  0.00    -0.263 OA
BRANCH  25  27
ATOM     27  O4  UNK     1       2.362  31.377 236.638  1.00  0.00    -0.320 OA
BRANCH  27  28
ATOM     28  C16 UNK     1       3.264  30.307 236.941  1.00  0.00     0.174 C 
ATOM     29  C20 UNK     1       4.402  30.845 237.782  1.00  0.00     0.034 C 
ENDBRANCH  27  28
ENDBRANCH  25  27
ENDBRANCH  16  25
ENDBRANCH   1  16
TORSDOF 11
ENDMDL
MODEL 8
REMARK VINA RESULT:      -6.0      4.775      8.666
REMARK  11 active torsions:
REMARK  status: ('A' for Active; 'I' for Inactive)
REMARK    1  A    between atoms: O2_2  and  C7_14 
REMARK    2  A    between atoms: O4_4  and  C12_19 
REMARK    3  A    between atoms: O4_4  and  C16_23 
REMARK       I    between atoms: N1_6  and  C5_12 
REMARK    4  A    between atoms: N2_7  and  C6_13 
REMARK    5  A    between atoms: N2_7  and  C8_15 
REMARK    6  A    between atoms: C1_8  and  C7_14 
REMARK    7  A    between atoms: C5_12  and  C6_13 
REMARK    8  A    between atoms: C8_15  and  C9_16 
REMARK    9  A    between atoms: C8_15  and  C12_19 
REMARK   10  A    between atoms: C9_16  and  C11_18 
REMARK   11  A    between atoms: C11_18  and  C13_20 
ROOT
ATOM      1  N2  UNK     1      -0.346  38.419 235.691  1.00  0.00     0.111 N 
ATOM      2  H10 UNK     1      -0.677  39.353 235.933  1.00  0.00     0.318 HD
ENDROOT
BRANCH   1   3
ATOM      3  C6  UNK     1       0.903  38.134 236.376  1.00  0.00     0.308 C 
ATOM      4  C10 UNK     1       1.510  39.398 236.952  1.00  0.00     0.053 C 
BRANCH   3   5
ATOM      5  C5  UNK     1       0.582  37.165 237.485  1.00  0.00     0.253 C 
ATOM      6  O1  UNK     1      -0.409  37.340 238.197  1.00  0.00    -0.271 OA
ATOM      7  N1  UNK     1       1.469  36.110 237.633  1.00  0.00    -0.336 N 
ATOM      8  C1  UNK     1       1.221  35.000 238.543  1.00  0.00     0.185 C 
ATOM      9  C4  UNK     1       2.652  35.865 236.812  1.00  0.00     0.127 C 
ATOM     10  C2  UNK     1       2.153  33.892 238.066  1.00  0.00     0.038 C 
ATOM     11  C3  UNK     1       3.321  34.654 237.445  1.00  0.00     0.022 C 
BRANCH   8  12
ATOM     12  C7  UNK     1       1.577  35.472 239.921  1.00  0.00     0.163 C 
ATOM     13  O3  UNK     1       2.559  36.146 240.201  1.00  0.00    -0.648 OA
BRANCH  12  14
ATOM     14  O2  UNK     1       0.661  35.047 240.824  1.00  0.00    -0.775 OA
ATOM     15  H18 UNK     1      -0.152  35.595 240.807  1.00  0.00     0.167 HD
ENDBRANCH  12  14
ENDBRANCH   8  12
ENDBRANCH   3   5
ENDBRANCH   1   3
BRANCH   1  16
ATOM     16  C8  UNK     1      -0.193  38.295 234.246  1.00  0.00     0.320 C 
BRANCH  16  17
ATOM     17  C9  UNK     1       0.618  37.046 233.867  1.00  0.00     0.051 C 
BRANCH  17  18
ATOM     18  C11 UNK     1       1.250  37.074 232.467  1.00  0.00     0.041 C 
BRANCH  18  19
ATOM     19  C13 UNK     1       0.727  36.004 231.543  1.00  0.00    -0.058 A 
ATOM     20  C14 UNK     1       0.037  34.924 232.072  1.00  0.00     0.007 A 
ATOM     21  C17 UNK     1      -0.448  33.935 231.217  1.00  0.00     0.001 A 
ATOM     22  C19 UNK     1      -0.236  34.037 229.842  1.00  0.00     0.000 A 
ATOM     23  C18 UNK     1       0.460  35.128 229.322  1.00  0.00     0.001 A 
ATOM     24  C15 UNK     1       0.944  36.118 230.178  1.00  0.00     0.007 A 
ENDBRANCH  18  19
ENDBRANCH  17  18
ENDBRANCH  16  17
BRANCH  16  25
ATOM     25  C12 UNK     1      -1.585  38.203 233.643  1.00  0.00     0.292 C 
ATOM     26  O5  UNK     1      -2.398  37.316 233.869  1.00  0.00    -0.263 OA
BRANCH  25  27
ATOM     27  O4  UNK     1      -1.786  39.274 232.816  1.00  0.00    -0.320 OA
BRANCH  27  28
ATOM     28  C16 UNK     1      -2.376  38.972 231.548  1.00  0.00     0.174 C 
ATOM     29  C20 UNK     1      -1.300  39.007 230.483  1.00  0.00     0.034 C 
ENDBRANCH  27  28
ENDBRANCH  25  27
ENDBRANCH  16  25
ENDBRANCH   1  16
TORSDOF 11
ENDMDL
MODEL 9
REMARK VINA RESULT:      -6.0      3.996      6.914
REMARK  11 active torsions:
REMARK  status: ('A' for Active; 'I' for Inactive)
REMARK    1  A    between atoms: O2_2  and  C7_14 
REMARK    2  A    between atoms: O4_4  and  C12_19 
REMARK    3  A    between atoms: O4_4  and  C16_23 
REMARK       I    between atoms: N1_6  and  C5_12 
REMARK    4  A    between atoms: N2_7  and  C6_13 
REMARK    5  A    between atoms: N2_7  and  C8_15 
REMARK    6  A    between atoms: C1_8  and  C7_14 
REMARK    7  A    between atoms: C5_12  and  C6_13 
REMARK    8  A    between atoms: C8_15  and  C9_16 
REMARK    9  A    between atoms: C8_15  and  C12_19 
REMARK   10  A    between atoms: C9_16  and  C11_18 
REMARK   11  A    between atoms: C11_18  and  C13_20 
ROOT
ATOM      1  N2  UNK     1       0.443  38.449 234.950  1.00  0.00     0.111 N 
ATOM      2  H10 UNK     1       0.058  39.377 235.122  1.00  0.00     0.318 HD
ENDROOT
BRANCH   1   3
ATOM      3  C6  UNK     1      -0.545  37.607 234.298  1.00  0.00     0.308 C 
ATOM      4  C10 UNK     1      -1.457  36.948 235.315  1.00  0.00     0.053 C 
BRANCH   3   5
ATOM      5  C5  UNK     1      -1.349  38.500 233.388  1.00  0.00     0.253 C 
ATOM      6  O1  UNK     1      -2.163  39.297 233.859  1.00  0.00    -0.271 OA
ATOM      7  N1  UNK     1      -1.110  38.343 232.032  1.00  0.00    -0.336 N 
ATOM      8  C1  UNK     1      -1.677  39.234 231.028  1.00  0.00     0.185 C 
ATOM      9  C4  UNK     1      -0.156  37.414 231.432  1.00  0.00     0.127 C 
ATOM     10  C2  UNK     1      -0.823  39.013 229.785  1.00  0.00     0.038 C 
ATOM     11  C3  UNK     1      -0.352  37.567 229.931  1.00  0.00     0.022 C 
BRANCH   8  12
ATOM     12  C7  UNK     1      -3.097  38.805 230.811  1.00  0.00     0.163 C 
ATOM     13  O3  UNK     1      -3.481  37.645 230.759  1.00  0.00    -0.648 OA
BRANCH  12  14
ATOM     14  O2  UNK     1      -3.907  39.883 230.674  1.00  0.00    -0.775 OA
ATOM     15  H18 UNK     1      -4.677  39.842 231.281  1.00  0.00     0.167 HD
ENDBRANCH  12  14
ENDBRANCH   8  12
ENDBRANCH   3   5
ENDBRANCH   1   3
BRANCH   1  16
ATOM     16  C8  UNK     1       0.901  37.850 236.198  1.00  0.00     0.320 C 
BRANCH  16  17
ATOM     17  C9  UNK     1       1.970  36.773 235.953  1.00  0.00     0.051 C 
BRANCH  17  18
ATOM     18  C11 UNK     1       1.875  35.538 236.860  1.00  0.00     0.041 C 
BRANCH  18  19
ATOM     19  C13 UNK     1       2.106  34.234 236.139  1.00  0.00    -0.058 A 
ATOM     20  C14 UNK     1       1.210  33.830 235.161  1.00  0.00     0.007 A 
ATOM     21  C17 UNK     1       1.424  32.624 234.493  1.00  0.00     0.001 A 
ATOM     22  C19 UNK     1       2.531  31.837 234.811  1.00  0.00     0.000 A 
ATOM     23  C18 UNK     1       3.424  32.256 235.796  1.00  0.00     0.001 A 
ATOM     24  C15 UNK     1       3.211  33.461 236.465  1.00  0.00     0.007 A 
ENDBRANCH  18  19
ENDBRANCH  17  18
ENDBRANCH  16  17
BRANCH  16  25
ATOM     25  C12 UNK     1       1.484  38.963 237.054  1.00  0.00     0.292 C 
ATOM     26  O5  UNK     1       0.840  39.855 237.591  1.00  0.00    -0.263 OA
BRANCH  25  27
ATOM     27  O4  UNK     1       2.840  38.802 237.134  1.00  0.00    -0.320 OA
BRANCH  27  28
ATOM     28  C16 UNK     1       3.421  39.097 238.408  1.00  0.00     0.174 C 
ATOM     29  C20 UNK     1       3.810  37.800 239.085  1.00  0.00     0.034 C 
ENDBRANCH  27  28
ENDBRANCH  25  27
ENDBRANCH  16  25
ENDBRANCH   1  16
TORSDOF 11
ENDMDL
