MODEL 1
REMARK VINA RESULT:      -6.3      0.000      0.000
REMARK  1 active torsions:
REMARK  status: ('A' for Active; 'I' for Inactive)
REMARK       I    between atoms: N2_4  and  C3_13 
REMARK    1  A    between atoms: N2_4  and  C4_14 
ROOT
ATOM      1 Cl1  UNK     1      -4.233  40.911 228.693  1.00  0.00    -0.082 Cl
ATOM      2  S1  UNK     1       1.455  43.857 228.450  1.00  0.00     0.068 SA
ATOM      3  N4  UNK     1       0.500  42.894 229.407  1.00  0.00    -0.309 N 
ATOM      4  H4  UNK     1       0.731  42.534 230.333  1.00  0.00     0.176 HD
ATOM      5  N5  UNK     1       0.475  44.049 227.124  1.00  0.00    -0.310 N 
ATOM      6  H5  UNK     1       0.687  44.584 226.282  1.00  0.00     0.176 HD
ATOM      7  C4  UNK     1      -1.741  41.909 229.157  1.00  0.00     0.100 A 
ATOM      8  C5  UNK     1      -0.636  42.680 228.722  1.00  0.00     0.096 A 
ATOM      9  C6  UNK     1      -0.650  43.362 227.377  1.00  0.00     0.069 A 
ATOM     10  C7  UNK     1      -2.823  41.831 228.263  1.00  0.00     0.063 A 
ATOM     11  C8  UNK     1      -1.770  43.246 226.517  1.00  0.00     0.034 A 
ATOM     12  C9  UNK     1      -2.837  42.469 227.002  1.00  0.00     0.028 A 
ENDROOT
BRANCH   7  13
ATOM     13  N2  UNK     1      -1.756  41.264 230.405  1.00  0.00    -0.188 N 
ATOM     14  C3  UNK     1      -1.569  39.953 230.660  1.00  0.00     0.674 A 
ATOM     15  N1  UNK     1      -2.202  39.435 231.749  1.00  0.00    -0.225 N 
ATOM     16  N3  UNK     1      -0.834  39.115 229.967  1.00  0.00    -0.225 N 
ATOM     17  C1  UNK     1      -1.906  38.042 231.889  1.00  0.00     0.158 A 
ATOM     18  H5  UNK     1      -2.804  39.947 232.382  1.00  0.00     0.177 HD
ATOM     19  C2  UNK     1      -0.982  37.813 230.685  1.00  0.00     0.158 A 
ATOM     20  H3  UNK     1      -0.286  39.308 229.128  1.00  0.00     0.177 HD
ATOM     21  H6  UNK     1      -2.094  41.853 231.161  1.00  0.00     0.184 HD
ENDBRANCH   7  13
TORSDOF 1
ENDMDL
MODEL 2
REMARK VINA RESULT:      -5.7      2.679      3.123
REMARK  1 active torsions:
REMARK  status: ('A' for Active; 'I' for Inactive)
REMARK       I    between atoms: N2_4  and  C3_13 
REMARK    1  A    between atoms: N2_4  and  C4_14 
ROOT
ATOM      1 Cl1  UNK     1       0.680  42.829 229.334  1.00  0.00    -0.082 Cl
ATOM      2  S1  UNK     1      -5.173  41.249 227.251  1.00  0.00     0.068 SA
ATOM      3  N4  UNK     1      -4.137  41.095 228.539  1.00  0.00    -0.309 N 
ATOM      4  H4  UNK     1      -4.320  40.602 229.413  1.00  0.00     0.176 HD
ATOM      5  N5  UNK     1      -4.244  42.148 226.209  1.00  0.00    -0.310 N 
ATOM      6  H5  UNK     1      -4.510  42.471 225.279  1.00  0.00     0.176 HD
ATOM      7  C4  UNK     1      -1.850  41.876 229.006  1.00  0.00     0.100 A 
ATOM      8  C5  UNK     1      -3.010  41.746 228.205  1.00  0.00     0.096 A 
ATOM      9  C6  UNK     1      -3.074  42.367 226.831  1.00  0.00     0.069 A 
ATOM     10  C7  UNK     1      -0.792  42.606 228.439  1.00  0.00     0.063 A 
ATOM     11  C8  UNK     1      -1.975  43.093 226.312  1.00  0.00     0.034 A 
ATOM     12  C9  UNK     1      -0.851  43.188 227.152  1.00  0.00     0.028 A 
ENDROOT
BRANCH   7  13
ATOM     13  N2  UNK     1      -1.763  41.308 230.289  1.00  0.00    -0.188 N 
ATOM     14  C3  UNK     1      -1.520  40.022 230.609  1.00  0.00     0.674 A 
ATOM     15  N1  UNK     1      -2.064  39.556 231.768  1.00  0.00    -0.225 N 
ATOM     16  N3  UNK     1      -0.808  39.161 229.919  1.00  0.00    -0.225 N 
ATOM     17  C1  UNK     1      -1.717  38.183 231.971  1.00  0.00     0.158 A 
ATOM     18  H5  UNK     1      -2.638  40.091 232.408  1.00  0.00     0.177 HD
ATOM     19  C2  UNK     1      -0.868  37.903 230.723  1.00  0.00     0.158 A 
ATOM     20  H3  UNK     1      -0.322  39.316 229.035  1.00  0.00     0.177 HD
ATOM     21  H6  UNK     1      -2.068  41.935 231.029  1.00  0.00     0.184 HD
ENDBRANCH   7  13
TORSDOF 1
ENDMDL
MODEL 3
REMARK VINA RESULT:      -5.3      5.622      7.393
REMARK  1 active torsions:
REMARK  status: ('A' for Active; 'I' for Inactive)
REMARK       I    between atoms: N2_4  and  C3_13 
REMARK    1  A    between atoms: N2_4  and  C4_14 
ROOT
ATOM      1 Cl1  UNK     1       0.950  34.998 235.157  1.00  0.00    -0.082 Cl
ATOM      2  S1  UNK     1      -1.826  39.497 231.532  1.00  0.00     0.068 SA
ATOM      3  N4  UNK     1      -1.590  39.020 233.104  1.00  0.00    -0.309 N 
ATOM      4  H4  UNK     1      -1.939  39.486 233.941  1.00  0.00     0.176 HD
ATOM      5  N5  UNK     1      -1.003  38.307 230.717  1.00  0.00    -0.310 N 
ATOM      6  H5  UNK     1      -0.896  38.222 229.707  1.00  0.00     0.176 HD
ATOM      7  C4  UNK     1      -0.409  37.142 234.169  1.00  0.00     0.100 A 
ATOM      8  C5  UNK     1      -0.851  37.899 233.057  1.00  0.00     0.096 A 
ATOM      9  C6  UNK     1      -0.506  37.479 231.650  1.00  0.00     0.069 A 
ATOM     10  C7  UNK     1       0.355  36.001 233.869  1.00  0.00     0.063 A 
ATOM     11  C8  UNK     1       0.269  36.318 231.409  1.00  0.00     0.034 A 
ATOM     12  C9  UNK     1       0.679  35.607 232.551  1.00  0.00     0.028 A 
ENDROOT
BRANCH   7  13
ATOM     13  N2  UNK     1      -0.716  37.509 235.491  1.00  0.00    -0.188 N 
ATOM     14  C3  UNK     1       0.037  38.233 236.343  1.00  0.00     0.674 A 
ATOM     15  N1  UNK     1      -0.103  37.970 237.673  1.00  0.00    -0.225 N 
ATOM     16  N3  UNK     1       0.896  39.174 236.029  1.00  0.00    -0.225 N 
ATOM     17  C1  UNK     1       0.753  38.816 238.446  1.00  0.00     0.158 A 
ATOM     18  H5  UNK     1      -0.720  37.276 238.076  1.00  0.00     0.177 HD
ATOM     19  C2  UNK     1       1.438  39.634 237.343  1.00  0.00     0.158 A 
ATOM     20  H3  UNK     1       1.139  39.514 235.098  1.00  0.00     0.177 HD
ATOM     21  H6  UNK     1      -1.535  37.035 235.862  1.00  0.00     0.184 HD
ENDBRANCH   7  13
TORSDOF 1
ENDMDL
MODEL 4
REMARK VINA RESULT:      -5.2      5.560      8.484
REMARK  1 active torsions:
REMARK  status: ('A' for Active; 'I' for Inactive)
REMARK       I    between atoms: N2_4  and  C3_13 
REMARK    1  A    between atoms: N2_4  and  C4_14 
ROOT
ATOM      1 Cl1  UNK     1       0.562  35.733 233.055  1.00  0.00    -0.082 Cl
ATOM      2  S1  UNK     1       0.623  39.431 238.291  1.00  0.00     0.068 SA
ATOM      3  N4  UNK     1       0.210  39.415 236.683  1.00  0.00    -0.309 N 
ATOM      4  H4  UNK     1      -0.198  40.183 236.151  1.00  0.00     0.176 HD
ATOM      5  N5  UNK     1       1.212  37.890 238.477  1.00  0.00    -0.310 N 
ATOM      6  H5  UNK     1       1.579  37.477 239.334  1.00  0.00     0.176 HD
ATOM      7  C4  UNK     1       0.338  37.730 234.894  1.00  0.00     0.100 A 
ATOM      8  C5  UNK     1       0.519  38.192 236.220  1.00  0.00     0.096 A 
ATOM      9  C6  UNK     1       1.111  37.294 237.278  1.00  0.00     0.069 A 
ATOM     10  C7  UNK     1       0.739  36.406 234.647  1.00  0.00     0.063 A 
ATOM     11  C8  UNK     1       1.497  35.967 236.969  1.00  0.00     0.034 A 
ATOM     12  C9  UNK     1       1.293  35.563 235.638  1.00  0.00     0.028 A 
ENDROOT
BRANCH   7  13
ATOM     13  N2  UNK     1      -0.210  38.544 233.889  1.00  0.00    -0.188 N 
ATOM     14  C3  UNK     1      -1.468  38.527 233.406  1.00  0.00     0.674 A 
ATOM     15  N1  UNK     1      -1.640  38.898 232.106  1.00  0.00    -0.225 N 
ATOM     16  N3  UNK     1      -2.557  38.191 234.058  1.00  0.00    -0.225 N 
ATOM     17  C1  UNK     1      -3.022  38.833 231.742  1.00  0.00     0.158 A 
ATOM     18  H5  UNK     1      -0.905  39.182 231.470  1.00  0.00     0.177 HD
ATOM     19  C2  UNK     1      -3.653  38.352 233.056  1.00  0.00     0.158 A 
ATOM     20  H3  UNK     1      -2.636  37.889 235.029  1.00  0.00     0.177 HD
ATOM     21  H6  UNK     1       0.485  39.093 233.390  1.00  0.00     0.184 HD
ENDBRANCH   7  13
TORSDOF 1
ENDMDL
MODEL 5
REMARK VINA RESULT:      -5.2      2.747      5.366
REMARK  1 active torsions:
REMARK  status: ('A' for Active; 'I' for Inactive)
REMARK       I    between atoms: N2_4  and  C3_13 
REMARK    1  A    between atoms: N2_4  and  C4_14 
ROOT
ATOM      1 Cl1  UNK     1      -4.507  41.102 227.445  1.00  0.00    -0.082 Cl
ATOM      2  S1  UNK     1       0.988  44.366 227.937  1.00  0.00     0.068 SA
ATOM      3  N4  UNK     1      -0.273  44.040 226.908  1.00  0.00    -0.309 N 
ATOM      4  H4  UNK     1      -0.397  44.399 225.962  1.00  0.00     0.176 HD
ATOM      5  N5  UNK     1       0.547  43.473 229.265  1.00  0.00    -0.310 N 
ATOM      6  H5  UNK     1       1.059  43.393 230.143  1.00  0.00     0.176 HD
ATOM      7  C4  UNK     1      -2.311  42.670 227.071  1.00  0.00     0.100 A 
ATOM      8  C5  UNK     1      -1.100  43.211 227.567  1.00  0.00     0.096 A 
ATOM      9  C6  UNK     1      -0.616  42.876 228.956  1.00  0.00     0.069 A 
ATOM     10  C7  UNK     1      -3.008  41.822 227.948  1.00  0.00     0.063 A 
ATOM     11  C8  UNK     1      -1.361  42.014 229.796  1.00  0.00     0.034 A 
ATOM     12  C9  UNK     1      -2.555  41.508 229.250  1.00  0.00     0.028 A 
ENDROOT
BRANCH   7  13
ATOM     13  N2  UNK     1      -2.787  42.964 225.782  1.00  0.00    -0.188 N 
ATOM     14  C3  UNK     1      -3.939  43.578 225.446  1.00  0.00     0.674 A 
ATOM     15  N1  UNK     1      -4.502  43.233 224.254  1.00  0.00    -0.225 N 
ATOM     16  N3  UNK     1      -4.582  44.481 226.148  1.00  0.00    -0.225 N 
ATOM     17  C1  UNK     1      -5.711  43.968 224.037  1.00  0.00     0.158 A 
ATOM     18  H5  UNK     1      -4.133  42.554 223.600  1.00  0.00     0.177 HD
ATOM     19  C2  UNK     1      -5.778  44.814 225.316  1.00  0.00     0.158 A 
ATOM     20  H3  UNK     1      -4.325  44.869 227.056  1.00  0.00     0.177 HD
ATOM     21  H6  UNK     1      -2.250  42.519 225.042  1.00  0.00     0.184 HD
ENDBRANCH   7  13
TORSDOF 1
ENDMDL
MODEL 6
REMARK VINA RESULT:      -5.1      2.724      4.971
REMARK  1 active torsions:
REMARK  status: ('A' for Active; 'I' for Inactive)
REMARK       I    between atoms: N2_4  and  C3_13 
REMARK    1  A    between atoms: N2_4  and  C4_14 
ROOT
ATOM      1 Cl1  UNK     1      -4.916  40.900 228.222  1.00  0.00    -0.082 Cl
ATOM      2  S1  UNK     1       0.917  43.529 227.826  1.00  0.00     0.068 SA
ATOM      3  N4  UNK     1      -0.579  43.505 227.107  1.00  0.00    -0.309 N 
ATOM      4  H4  UNK     1      -0.870  44.039 226.288  1.00  0.00     0.176 HD
ATOM      5  N5  UNK     1       0.683  42.453 229.068  1.00  0.00    -0.310 N 
ATOM      6  H5  UNK     1       1.369  42.171 229.768  1.00  0.00     0.176 HD
ATOM      7  C4  UNK     1      -2.683  42.312 227.559  1.00  0.00     0.100 A 
ATOM      8  C5  UNK     1      -1.331  42.647 227.815  1.00  0.00     0.096 A 
ATOM      9  C6  UNK     1      -0.587  42.026 228.971  1.00  0.00     0.069 A 
ATOM     10  C7  UNK     1      -3.262  41.383 228.441  1.00  0.00     0.063 A 
ATOM     11  C8  UNK     1      -1.223  41.094 229.827  1.00  0.00     0.034 A 
ATOM     12  C9  UNK     1      -2.564  40.801 229.525  1.00  0.00     0.028 A 
ENDROOT
BRANCH   7  13
ATOM     13  N2  UNK     1      -3.401  42.874 226.490  1.00  0.00    -0.188 N 
ATOM     14  C3  UNK     1      -3.557  42.377 225.247  1.00  0.00     0.674 A 
ATOM     15  N1  UNK     1      -3.719  43.274 224.235  1.00  0.00    -0.225 N 
ATOM     16  N3  UNK     1      -3.572  41.110 224.903  1.00  0.00    -0.225 N 
ATOM     17  C1  UNK     1      -3.875  42.598 222.983  1.00  0.00     0.158 A 
ATOM     18  H5  UNK     1      -3.729  44.281 224.333  1.00  0.00     0.177 HD
ATOM     19  C2  UNK     1      -3.774  41.131 223.423  1.00  0.00     0.158 A 
ATOM     20  H3  UNK     1      -3.470  40.296 225.509  1.00  0.00     0.177 HD
ATOM     21  H6  UNK     1      -3.699  43.831 226.662  1.00  0.00     0.184 HD
ENDBRANCH   7  13
TORSDOF 1
ENDMDL
MODEL 7
REMARK VINA RESULT:      -5.1      6.681      9.551
REMARK  1 active torsions:
REMARK  status: ('A' for Active; 'I' for Inactive)
REMARK       I    between atoms: N2_4  and  C3_13 
REMARK    1  A    between atoms: N2_4  and  C4_14 
ROOT
ATOM      1 Cl1  UNK     1       1.155  39.929 237.131  1.00  0.00    -0.082 Cl
ATOM      2  S1  UNK     1       2.000  33.695 235.899  1.00  0.00     0.068 SA
ATOM      3  N4  UNK     1       0.946  34.959 235.683  1.00  0.00    -0.309 N 
ATOM      4  H4  UNK     1       0.047  34.928 235.201  1.00  0.00     0.176 HD
ATOM      5  N5  UNK     1       3.218  34.445 236.742  1.00  0.00    -0.310 N 
ATOM      6  H5  UNK     1       4.080  34.017 237.079  1.00  0.00     0.176 HD
ATOM      7  C4  UNK     1       0.957  37.334 236.328  1.00  0.00     0.100 A 
ATOM      8  C5  UNK     1       1.507  36.031 236.267  1.00  0.00     0.096 A 
ATOM      9  C6  UNK     1       2.847  35.727 236.891  1.00  0.00     0.069 A 
ATOM     10  C7  UNK     1       1.733  38.296 236.996  1.00  0.00     0.063 A 
ATOM     11  C8  UNK     1       3.584  36.739 237.553  1.00  0.00     0.034 A 
ATOM     12  C9  UNK     1       2.988  38.012 237.582  1.00  0.00     0.028 A 
ENDROOT
BRANCH   7  13
ATOM     13  N2  UNK     1      -0.288  37.645 235.755  1.00  0.00    -0.188 N 
ATOM     14  C3  UNK     1      -0.561  37.906 234.461  1.00  0.00     0.674 A 
ATOM     15  N1  UNK     1      -1.599  38.750 234.203  1.00  0.00    -0.225 N 
ATOM     16  N3  UNK     1       0.070  37.429 233.413  1.00  0.00    -0.225 N 
ATOM     17  C1  UNK     1      -1.766  38.925 232.792  1.00  0.00     0.158 A 
ATOM     18  H5  UNK     1      -2.181  39.201 234.898  1.00  0.00     0.177 HD
ATOM     19  C2  UNK     1      -0.639  38.038 232.247  1.00  0.00     0.158 A 
ATOM     20  H3  UNK     1       0.864  36.789 233.398  1.00  0.00     0.177 HD
ATOM     21  H6  UNK     1      -1.013  37.832 236.443  1.00  0.00     0.184 HD
ENDBRANCH   7  13
TORSDOF 1
ENDMDL
MODEL 8
REMARK VINA RESULT:      -5.1      8.609     10.704
REMARK  1 active torsions:
REMARK  status: ('A' for Active; 'I' for Inactive)
REMARK       I    between atoms: N2_4  and  C3_13 
REMARK    1  A    between atoms: N2_4  and  C4_14 
ROOT
ATOM      1 Cl1  UNK     1       3.843  37.536 239.727  1.00  0.00    -0.082 Cl
ATOM      2  S1  UNK     1       0.420  37.324 234.311  1.00  0.00     0.068 SA
ATOM      3  N4  UNK     1       1.426  36.428 235.281  1.00  0.00    -0.309 N 
ATOM      4  H4  UNK     1       1.728  35.466 235.122  1.00  0.00     0.176 HD
ATOM      5  N5  UNK     1       0.365  38.753 235.156  1.00  0.00    -0.310 N 
ATOM      6  H5  UNK     1      -0.154  39.592 234.900  1.00  0.00     0.176 HD
ATOM      7  C4  UNK     1       2.612  36.862 237.393  1.00  0.00     0.100 A 
ATOM      8  C5  UNK     1       1.764  37.216 236.315  1.00  0.00     0.096 A 
ATOM      9  C6  UNK     1       1.139  38.587 236.240  1.00  0.00     0.069 A 
ATOM     10  C7  UNK     1       2.821  37.860 238.360  1.00  0.00     0.063 A 
ATOM     11  C8  UNK     1       1.386  39.552 237.247  1.00  0.00     0.034 A 
ATOM     12  C9  UNK     1       2.235  39.145 238.291  1.00  0.00     0.028 A 
ENDROOT
BRANCH   7  13
ATOM     13  N2  UNK     1       3.208  35.593 237.488  1.00  0.00    -0.188 N 
ATOM     14  C3  UNK     1       2.697  34.480 238.051  1.00  0.00     0.674 A 
ATOM     15  N1  UNK     1       3.581  33.594 238.589  1.00  0.00    -0.225 N 
ATOM     16  N3  UNK     1       1.428  34.154 238.136  1.00  0.00    -0.225 N 
ATOM     17  C1  UNK     1       2.891  32.468 239.142  1.00  0.00     0.158 A 
ATOM     18  H5  UNK     1       4.587  33.700 238.606  1.00  0.00     0.177 HD
ATOM     19  C2  UNK     1       1.432  32.838 238.844  1.00  0.00     0.158 A 
ATOM     20  H3  UNK     1       0.623  34.679 237.796  1.00  0.00     0.177 HD
ATOM     21  H6  UNK     1       4.190  35.588 237.227  1.00  0.00     0.184 HD
ENDBRANCH   7  13
TORSDOF 1
ENDMDL
MODEL 9
REMARK VINA RESULT:      -4.9      8.131     10.994
REMARK  1 active torsions:
REMARK  status: ('A' for Active; 'I' for Inactive)
REMARK       I    between atoms: N2_4  and  C3_13 
REMARK    1  A    between atoms: N2_4  and  C4_14 
ROOT
ATOM      1 Cl1  UNK     1       1.099  39.965 237.388  1.00  0.00    -0.082 Cl
ATOM      2  S1  UNK     1       1.915  34.068 239.765  1.00  0.00     0.068 SA
ATOM      3  N4  UNK     1       1.053  34.939 238.645  1.00  0.00    -0.309 N 
ATOM      4  H4  UNK     1       0.345  34.579 238.005  1.00  0.00     0.176 HD
ATOM      5  N5  UNK     1       2.857  35.261 240.430  1.00  0.00    -0.310 N 
ATOM      6  H5  UNK     1       3.547  35.149 241.173  1.00  0.00     0.176 HD
ATOM      7  C4  UNK     1       1.005  37.308 237.980  1.00  0.00     0.100 A 
ATOM      8  C5  UNK     1       1.470  36.212 238.746  1.00  0.00     0.096 A 
ATOM      9  C6  UNK     1       2.534  36.401 239.800  1.00  0.00     0.069 A 
ATOM     10  C7  UNK     1       1.593  38.551 238.268  1.00  0.00     0.063 A 
ATOM     11  C8  UNK     1       3.091  37.680 240.045  1.00  0.00     0.034 A 
ATOM     12  C9  UNK     1       2.591  38.729 239.255  1.00  0.00     0.028 A 
ENDROOT
BRANCH   7  13
ATOM     13  N2  UNK     1       0.015  37.161 236.993  1.00  0.00    -0.188 N 
ATOM     14  C3  UNK     1       0.183  37.101 235.657  1.00  0.00     0.674 A 
ATOM     15  N1  UNK     1      -0.834  37.571 234.881  1.00  0.00    -0.225 N 
ATOM     16  N3  UNK     1       1.229  36.634 235.016  1.00  0.00    -0.225 N 
ATOM     17  C1  UNK     1      -0.511  37.438 233.493  1.00  0.00     0.158 A 
ATOM     18  H5  UNK     1      -1.703  37.964 235.220  1.00  0.00     0.177 HD
ATOM     19  C2  UNK     1       0.886  36.807 233.572  1.00  0.00     0.158 A 
ATOM     20  H3  UNK     1       2.083  36.241 235.413  1.00  0.00     0.177 HD
ATOM     21  H6  UNK     1      -0.931  37.264 237.351  1.00  0.00     0.184 HD
ENDBRANCH   7  13
TORSDOF 1
ENDMDL
