MODEL 1
REMARK VINA RESULT:      -7.2      0.000      0.000
REMARK  6 active torsions:
REMARK  status: ('A' for Active; 'I' for Inactive)
REMARK    1  A    between atoms: O1_1  and  C2_4 
REMARK    2  A    between atoms: N1_2  and  C9_11 
REMARK    3  A    between atoms: C1_3  and  C2_4 
REMARK    4  A    between atoms: C2_4  and  C5_7 
REMARK    5  A    between atoms: C2_4  and  C10_12 
REMARK    6  A    between atoms: C5_7  and  C9_11 
ROOT
ATOM      1  C2  UNK     1      -1.088  41.953 229.037  1.00  0.00     0.090 C 
ENDROOT
BRANCH   1   2
ATOM      2  O1  UNK     1      -1.580  42.504 230.276  1.00  0.00    -0.385 OA
ATOM      3  H20 UNK     1      -1.087  43.314 230.485  1.00  0.00     0.211 HD
ENDBRANCH   1   2
BRANCH   1   4
ATOM      4  C1  UNK     1       0.184  42.735 228.710  1.00  0.00     0.025 C 
ATOM      5  C3  UNK     1       0.711  43.458 229.958  1.00  0.00     0.008 C 
ATOM      6  C6  UNK     1       2.011  44.204 229.670  1.00  0.00     0.000 C 
ATOM      7  C8  UNK     1       3.071  43.280 229.077  1.00  0.00     0.000 C 
ATOM      8  C7  UNK     1       2.555  42.556 227.838  1.00  0.00     0.000 C 
ATOM      9  C4  UNK     1       1.255  41.807 228.123  1.00  0.00     0.008 C 
ENDBRANCH   1   4
BRANCH   1  10
ATOM     10  C5  UNK     1      -0.773  40.454 229.305  1.00  0.00     0.073 C 
BRANCH  10  11
ATOM     11  C9  UNK     1      -1.485  39.855 230.521  1.00  0.00     0.276 C 
BRANCH  11  12
ATOM     12  N1  UNK     1      -1.146  38.438 230.652  1.00  0.00     0.088 N 
ATOM     13  C11 UNK     1      -0.641  38.153 232.002  1.00  0.00     0.272 C 
ATOM     14  C13 UNK     1      -0.328  36.666 232.172  1.00  0.00     0.030 C 
ATOM     15  C15 UNK     1       0.654  36.181 231.111  1.00  0.00     0.003 C 
ATOM     16  C14 UNK     1       0.159  36.555 229.718  1.00  0.00     0.030 C 
ATOM     17  C12 UNK     1      -0.170  38.046 229.626  1.00  0.00     0.272 C 
ENDBRANCH  11  12
ENDBRANCH  10  11
ENDBRANCH   1  10
BRANCH   1  18
ATOM     18  C10 UNK     1      -2.227  42.107 228.025  1.00  0.00    -0.024 A 
ATOM     19  C16 UNK     1      -3.395  41.412 228.239  1.00  0.00     0.010 A 
ATOM     20  C18 UNK     1      -4.433  41.553 227.319  1.00  0.00     0.001 A 
ATOM     21  C20 UNK     1      -4.274  42.385 226.210  1.00  0.00     0.000 A 
ATOM     22  C19 UNK     1      -3.078  43.077 226.023  1.00  0.00     0.001 A 
ATOM     23  C17 UNK     1      -2.039  42.935 226.944  1.00  0.00     0.010 A 
ENDBRANCH   1  18
TORSDOF 6
ENDMDL
MODEL 2
REMARK VINA RESULT:      -6.7      1.538      6.008
REMARK  6 active torsions:
REMARK  status: ('A' for Active; 'I' for Inactive)
REMARK    1  A    between atoms: O1_1  and  C2_4 
REMARK    2  A    between atoms: N1_2  and  C9_11 
REMARK    3  A    between atoms: C1_3  and  C2_4 
REMARK    4  A    between atoms: C2_4  and  C5_7 
REMARK    5  A    between atoms: C2_4  and  C10_12 
REMARK    6  A    between atoms: C5_7  and  C9_11 
ROOT
ATOM      1  C2  UNK     1      -1.399  40.957 229.453  1.00  0.00     0.090 C 
ENDROOT
BRANCH   1   2
ATOM      2  O1  UNK     1      -1.783  42.002 230.371  1.00  0.00    -0.385 OA
ATOM      3  H20 UNK     1      -2.573  42.454 230.030  1.00  0.00     0.211 HD
ENDBRANCH   1   2
BRANCH   1   4
ATOM      4  C1  UNK     1      -2.516  40.886 228.413  1.00  0.00     0.025 C 
ATOM      5  C3  UNK     1      -3.827  40.415 229.056  1.00  0.00     0.008 C 
ATOM      6  C6  UNK     1      -4.973  40.387 228.047  1.00  0.00     0.000 C 
ATOM      7  C8  UNK     1      -5.149  41.738 227.358  1.00  0.00     0.000 C 
ATOM      8  C7  UNK     1      -3.850  42.215 226.718  1.00  0.00     0.000 C 
ATOM      9  C4  UNK     1      -2.702  42.246 227.725  1.00  0.00     0.008 C 
ENDBRANCH   1   4
BRANCH   1  10
ATOM     10  C5  UNK     1      -0.055  41.399 228.806  1.00  0.00     0.073 C 
BRANCH  10  11
ATOM     11  C9  UNK     1       0.328  42.860 229.057  1.00  0.00     0.276 C 
BRANCH  11  12
ATOM     12  N1  UNK     1       1.673  42.933 229.629  1.00  0.00     0.088 N 
ATOM     13  C11 UNK     1       1.813  44.137 230.459  1.00  0.00     0.272 C 
ATOM     14  C13 UNK     1       3.198  44.205 231.105  1.00  0.00     0.030 C 
ATOM     15  C15 UNK     1       4.302  44.136 230.056  1.00  0.00     0.003 C 
ATOM     16  C14 UNK     1       4.100  42.927 229.149  1.00  0.00     0.030 C 
ATOM     17  C12 UNK     1       2.686  42.901 228.565  1.00  0.00     0.272 C 
ENDBRANCH  11  12
ENDBRANCH  10  11
ENDBRANCH   1  10
BRANCH   1  18
ATOM     18  C10 UNK     1      -1.217  39.696 230.303  1.00  0.00    -0.024 A 
ATOM     19  C16 UNK     1      -1.699  39.696 231.591  1.00  0.00     0.010 A 
ATOM     20  C18 UNK     1      -1.535  38.547 232.365  1.00  0.00     0.001 A 
ATOM     21  C20 UNK     1      -0.892  37.431 231.828  1.00  0.00     0.000 A 
ATOM     22  C19 UNK     1      -0.415  37.464 230.518  1.00  0.00     0.001 A 
ATOM     23  C17 UNK     1      -0.580  38.613 229.744  1.00  0.00     0.010 A 
ENDBRANCH   1  18
TORSDOF 6
ENDMDL
MODEL 3
REMARK VINA RESULT:      -6.6      6.634      9.292
REMARK  6 active torsions:
REMARK  status: ('A' for Active; 'I' for Inactive)
REMARK    1  A    between atoms: O1_1  and  C2_4 
REMARK    2  A    between atoms: N1_2  and  C9_11 
REMARK    3  A    between atoms: C1_3  and  C2_4 
REMARK    4  A    between atoms: C2_4  and  C5_7 
REMARK    5  A    between atoms: C2_4  and  C10_12 
REMARK    6  A    between atoms: C5_7  and  C9_11 
ROOT
ATOM      1  C2  UNK     1       1.000  36.059 235.552  1.00  0.00     0.090 C 
ENDROOT
BRANCH   1   2
ATOM      2  O1  UNK     1      -0.319  35.979 236.130  1.00  0.00    -0.385 OA
ATOM      3  H20 UNK     1      -0.241  35.869 237.092  1.00  0.00     0.211 HD
ENDBRANCH   1   2
BRANCH   1   4
ATOM      4  C1  UNK     1       1.592  37.379 236.045  1.00  0.00     0.025 C 
ATOM      5  C3  UNK     1       0.520  38.223 236.749  1.00  0.00     0.008 C 
ATOM      6  C6  UNK     1       1.099  39.525 237.299  1.00  0.00     0.000 C 
ATOM      7  C8  UNK     1       2.291  39.268 238.216  1.00  0.00     0.000 C 
ATOM      8  C7  UNK     1       3.360  38.427 237.525  1.00  0.00     0.000 C 
ATOM      9  C4  UNK     1       2.785  37.123 236.975  1.00  0.00     0.008 C 
ENDBRANCH   1   4
BRANCH   1  10
ATOM     10  C5  UNK     1       1.805  34.844 236.097  1.00  0.00     0.073 C 
BRANCH  10  11
ATOM     11  C9  UNK     1       1.018  33.920 237.031  1.00  0.00     0.276 C 
BRANCH  11  12
ATOM     12  N1  UNK     1       1.836  32.765 237.398  1.00  0.00     0.088 N 
ATOM     13  C11 UNK     1       3.067  33.201 238.074  1.00  0.00     0.272 C 
ATOM     14  C13 UNK     1       3.912  32.003 238.509  1.00  0.00     0.030 C 
ATOM     15  C15 UNK     1       4.233  31.093 237.328  1.00  0.00     0.003 C 
ATOM     16  C14 UNK     1       2.956  30.713 236.586  1.00  0.00     0.030 C 
ATOM     17  C12 UNK     1       2.141  31.953 236.212  1.00  0.00     0.272 C 
ENDBRANCH  11  12
ENDBRANCH  10  11
ENDBRANCH   1  10
BRANCH   1  18
ATOM     18  C10 UNK     1       0.803  35.958 234.037  1.00  0.00    -0.024 A 
ATOM     19  C16 UNK     1       0.292  34.791 233.517  1.00  0.00     0.010 A 
ATOM     20  C18 UNK     1       0.112  34.699 232.137  1.00  0.00     0.001 A 
ATOM     21  C20 UNK     1       0.447  35.776 231.316  1.00  0.00     0.000 A 
ATOM     22  C19 UNK     1       0.962  36.945 231.875  1.00  0.00     0.001 A 
ATOM     23  C17 UNK     1       1.143  37.037 233.256  1.00  0.00     0.010 A 
ENDBRANCH   1  18
TORSDOF 6
ENDMDL
MODEL 4
REMARK VINA RESULT:      -6.6      6.542      9.307
REMARK  6 active torsions:
REMARK  status: ('A' for Active; 'I' for Inactive)
REMARK    1  A    between atoms: O1_1  and  C2_4 
REMARK    2  A    between atoms: N1_2  and  C9_11 
REMARK    3  A    between atoms: C1_3  and  C2_4 
REMARK    4  A    between atoms: C2_4  and  C5_7 
REMARK    5  A    between atoms: C2_4  and  C10_12 
REMARK    6  A    between atoms: C5_7  and  C9_11 
ROOT
ATOM      1  C2  UNK     1       0.761  36.131 235.386  1.00  0.00     0.090 C 
ENDROOT
BRANCH   1   2
ATOM      2  O1  UNK     1      -0.599  36.206 235.862  1.00  0.00    -0.385 OA
ATOM      3  H20 UNK     1      -0.640  36.810 236.621  1.00  0.00     0.211 HD
ENDBRANCH   1   2
BRANCH   1   4
ATOM      4  C1  UNK     1       1.449  37.398 235.893  1.00  0.00     0.025 C 
ATOM      5  C3  UNK     1       0.463  38.273 236.678  1.00  0.00     0.008 C 
ATOM      6  C6  UNK     1       1.141  39.521 237.240  1.00  0.00     0.000 C 
ATOM      7  C8  UNK     1       2.359  39.166 238.087  1.00  0.00     0.000 C 
ATOM      8  C7  UNK     1       3.344  38.293 237.315  1.00  0.00     0.000 C 
ATOM      9  C4  UNK     1       2.670  37.044 236.752  1.00  0.00     0.008 C 
ENDBRANCH   1   4
BRANCH   1  10
ATOM     10  C5  UNK     1       1.389  34.857 236.021  1.00  0.00     0.073 C 
BRANCH  10  11
ATOM     11  C9  UNK     1       0.446  34.059 236.926  1.00  0.00     0.276 C 
BRANCH  11  12
ATOM     12  N1  UNK     1       1.035  33.912 238.257  1.00  0.00     0.088 N 
ATOM     13  C11 UNK     1       0.711  35.075 239.094  1.00  0.00     0.272 C 
ATOM     14  C13 UNK     1       1.278  34.916 240.505  1.00  0.00     0.030 C 
ATOM     15  C15 UNK     1       2.782  34.670 240.474  1.00  0.00     0.003 C 
ATOM     16  C14 UNK     1       3.114  33.513 239.538  1.00  0.00     0.030 C 
ATOM     17  C12 UNK     1       2.488  33.718 238.157  1.00  0.00     0.272 C 
ENDBRANCH  11  12
ENDBRANCH  10  11
ENDBRANCH   1  10
BRANCH   1  18
ATOM     18  C10 UNK     1       0.668  36.002 233.863  1.00  0.00    -0.024 A 
ATOM     19  C16 UNK     1       1.082  37.060 233.088  1.00  0.00     0.010 A 
ATOM     20  C18 UNK     1       0.999  36.943 231.700  1.00  0.00     0.001 A 
ATOM     21  C20 UNK     1       0.503  35.771 231.128  1.00  0.00     0.000 A 
ATOM     22  C19 UNK     1       0.092  34.717 231.943  1.00  0.00     0.001 A 
ATOM     23  C17 UNK     1       0.175  34.834 233.331  1.00  0.00     0.010 A 
ENDBRANCH   1  18
TORSDOF 6
ENDMDL
MODEL 5
REMARK VINA RESULT:      -6.4      6.315     10.330
REMARK  6 active torsions:
REMARK  status: ('A' for Active; 'I' for Inactive)
REMARK    1  A    between atoms: O1_1  and  C2_4 
REMARK    2  A    between atoms: N1_2  and  C9_11 
REMARK    3  A    between atoms: C1_3  and  C2_4 
REMARK    4  A    between atoms: C2_4  and  C5_7 
REMARK    5  A    between atoms: C2_4  and  C10_12 
REMARK    6  A    between atoms: C5_7  and  C9_11 
ROOT
ATOM      1  C2  UNK     1       1.456  36.645 236.858  1.00  0.00     0.090 C 
ENDROOT
BRANCH   1   2
ATOM      2  O1  UNK     1       0.077  36.846 237.230  1.00  0.00    -0.385 OA
ATOM      3  H20 UNK     1      -0.155  37.781 237.108  1.00  0.00     0.211 HD
ENDBRANCH   1   2
BRANCH   1   4
ATOM      4  C1  UNK     1       1.655  35.130 236.804  1.00  0.00     0.025 C 
ATOM      5  C3  UNK     1       0.858  34.520 235.644  1.00  0.00     0.008 C 
ATOM      6  C6  UNK     1       1.082  33.014 235.536  1.00  0.00     0.000 C 
ATOM      7  C8  UNK     1       2.566  32.672 235.427  1.00  0.00     0.000 C 
ATOM      8  C7  UNK     1       3.366  33.277 236.576  1.00  0.00     0.000 C 
ATOM      9  C4  UNK     1       3.146  34.784 236.685  1.00  0.00     0.008 C 
ENDBRANCH   1   4
BRANCH   1  10
ATOM     10  C5  UNK     1       1.641  37.287 235.454  1.00  0.00     0.073 C 
BRANCH  10  11
ATOM     11  C9  UNK     1       0.446  38.107 234.960  1.00  0.00     0.276 C 
BRANCH  11  12
ATOM     12  N1  UNK     1       0.073  37.685 233.610  1.00  0.00     0.088 N 
ATOM     13  C11 UNK     1      -1.099  36.800 233.654  1.00  0.00     0.272 C 
ATOM     14  C13 UNK     1      -1.533  36.388 232.246  1.00  0.00     0.030 C 
ATOM     15  C15 UNK     1      -0.387  35.736 231.481  1.00  0.00     0.003 C 
ATOM     16  C14 UNK     1       0.850  36.627 231.513  1.00  0.00     0.030 C 
ATOM     17  C12 UNK     1       1.208  37.031 232.944  1.00  0.00     0.272 C 
ENDBRANCH  11  12
ENDBRANCH  10  11
ENDBRANCH   1  10
BRANCH   1  18
ATOM     18  C10 UNK     1       2.289  37.376 237.916  1.00  0.00    -0.024 A 
ATOM     19  C16 UNK     1       2.992  38.496 237.540  1.00  0.00     0.010 A 
ATOM     20  C18 UNK     1       3.750  39.163 238.502  1.00  0.00     0.001 A 
ATOM     21  C20 UNK     1       3.782  38.690 239.814  1.00  0.00     0.000 A 
ATOM     22  C19 UNK     1       3.057  37.551 240.163  1.00  0.00     0.001 A 
ATOM     23  C17 UNK     1       2.299  36.883 239.200  1.00  0.00     0.010 A 
ENDBRANCH   1  18
TORSDOF 6
ENDMDL
MODEL 6
REMARK VINA RESULT:      -6.2      6.746     10.164
REMARK  6 active torsions:
REMARK  status: ('A' for Active; 'I' for Inactive)
REMARK    1  A    between atoms: O1_1  and  C2_4 
REMARK    2  A    between atoms: N1_2  and  C9_11 
REMARK    3  A    between atoms: C1_3  and  C2_4 
REMARK    4  A    between atoms: C2_4  and  C5_7 
REMARK    5  A    between atoms: C2_4  and  C10_12 
REMARK    6  A    between atoms: C5_7  and  C9_11 
ROOT
ATOM      1  C2  UNK     1       0.794  35.386 235.536  1.00  0.00     0.090 C 
ENDROOT
BRANCH   1   2
ATOM      2  O1  UNK     1       1.428  34.101 235.707  1.00  0.00    -0.385 OA
ATOM      3  H20 UNK     1       2.164  34.188 236.336  1.00  0.00     0.211 HD
ENDBRANCH   1   2
BRANCH   1   4
ATOM      4  C1  UNK     1      -0.543  35.290 236.270  1.00  0.00     0.025 C 
ATOM      5  C3  UNK     1      -0.641  33.971 237.048  1.00  0.00     0.008 C 
ATOM      6  C6  UNK     1      -1.948  33.875 237.833  1.00  0.00     0.000 C 
ATOM      7  C8  UNK     1      -2.139  35.076 238.755  1.00  0.00     0.000 C 
ATOM      8  C7  UNK     1      -2.040  36.392 237.990  1.00  0.00     0.000 C 
ATOM      9  C4  UNK     1      -0.734  36.492 237.205  1.00  0.00     0.008 C 
ENDBRANCH   1   4
BRANCH   1  10
ATOM     10  C5  UNK     1       1.727  36.439 236.201  1.00  0.00     0.073 C 
BRANCH  10  11
ATOM     11  C9  UNK     1       2.992  35.862 236.842  1.00  0.00     0.276 C 
BRANCH  11  12
ATOM     12  N1  UNK     1       3.490  36.771 237.874  1.00  0.00     0.088 N 
ATOM     13  C11 UNK     1       3.003  36.361 239.199  1.00  0.00     0.272 C 
ATOM     14  C13 UNK     1       3.553  37.273 240.296  1.00  0.00     0.030 C 
ATOM     15  C15 UNK     1       3.218  38.734 240.023  1.00  0.00     0.003 C 
ATOM     16  C14 UNK     1       3.654  39.126 238.615  1.00  0.00     0.030 C 
ATOM     17  C12 UNK     1       3.100  38.156 237.571  1.00  0.00     0.272 C 
ENDBRANCH  11  12
ENDBRANCH  10  11
ENDBRANCH   1  10
BRANCH   1  18
ATOM     18  C10 UNK     1       0.696  35.610 234.025  1.00  0.00    -0.024 A 
ATOM     19  C16 UNK     1       0.224  34.585 233.238  1.00  0.00     0.010 A 
ATOM     20  C18 UNK     1       0.133  34.788 231.861  1.00  0.00     0.001 A 
ATOM     21  C20 UNK     1       0.517  36.011 231.310  1.00  0.00     0.000 A 
ATOM     22  C19 UNK     1       0.991  37.030 232.136  1.00  0.00     0.001 A 
ATOM     23  C17 UNK     1       1.082  36.826 233.514  1.00  0.00     0.010 A 
ENDBRANCH   1  18
TORSDOF 6
ENDMDL
MODEL 7
REMARK VINA RESULT:      -6.2      6.328      8.892
REMARK  6 active torsions:
REMARK  status: ('A' for Active; 'I' for Inactive)
REMARK    1  A    between atoms: O1_1  and  C2_4 
REMARK    2  A    between atoms: N1_2  and  C9_11 
REMARK    3  A    between atoms: C1_3  and  C2_4 
REMARK    4  A    between atoms: C2_4  and  C5_7 
REMARK    5  A    between atoms: C2_4  and  C10_12 
REMARK    6  A    between atoms: C5_7  and  C9_11 
ROOT
ATOM      1  C2  UNK     1       0.123  36.131 234.157  1.00  0.00     0.090 C 
ENDROOT
BRANCH   1   2
ATOM      2  O1  UNK     1       1.144  35.338 234.798  1.00  0.00    -0.385 OA
ATOM      3  H20 UNK     1       0.899  35.190 235.726  1.00  0.00     0.211 HD
ENDBRANCH   1   2
BRANCH   1   4
ATOM      4  C1  UNK     1      -1.192  35.737 234.829  1.00  0.00     0.025 C 
ATOM      5  C3  UNK     1      -0.957  35.358 236.297  1.00  0.00     0.008 C 
ATOM      6  C6  UNK     1      -2.265  35.011 237.006  1.00  0.00     0.000 C 
ATOM      7  C8  UNK     1      -3.288  36.137 236.883  1.00  0.00     0.000 C 
ATOM      8  C7  UNK     1      -3.525  36.521 235.426  1.00  0.00     0.000 C 
ATOM      9  C4  UNK     1      -2.220  36.871 234.714  1.00  0.00     0.008 C 
ENDBRANCH   1   4
BRANCH   1  10
ATOM     10  C5  UNK     1       0.471  37.621 234.433  1.00  0.00     0.073 C 
BRANCH  10  11
ATOM     11  C9  UNK     1       1.904  37.867 234.914  1.00  0.00     0.276 C 
BRANCH  11  12
ATOM     12  N1  UNK     1       1.891  38.678 236.131  1.00  0.00     0.088 N 
ATOM     13  C11 UNK     1       2.859  38.157 237.106  1.00  0.00     0.272 C 
ATOM     14  C13 UNK     1       2.894  39.023 238.366  1.00  0.00     0.030 C 
ATOM     15  C15 UNK     1       1.509  39.150 238.990  1.00  0.00     0.003 C 
ATOM     16  C14 UNK     1       0.496  39.613 237.948  1.00  0.00     0.030 C 
ATOM     17  C12 UNK     1       0.537  38.728 236.702  1.00  0.00     0.272 C 
ENDBRANCH  11  12
ENDBRANCH  10  11
ENDBRANCH   1  10
BRANCH   1  18
ATOM     18  C10 UNK     1       0.215  35.808 232.663  1.00  0.00    -0.024 A 
ATOM     19  C16 UNK     1       0.834  36.712 231.832  1.00  0.00     0.010 A 
ATOM     20  C18 UNK     1       0.919  36.419 230.471  1.00  0.00     0.001 A 
ATOM     21  C20 UNK     1       0.382  35.228 229.980  1.00  0.00     0.000 A 
ATOM     22  C19 UNK     1      -0.240  34.333 230.849  1.00  0.00     0.001 A 
ATOM     23  C17 UNK     1      -0.325  34.627 232.211  1.00  0.00     0.010 A 
ENDBRANCH   1  18
TORSDOF 6
ENDMDL
MODEL 8
REMARK VINA RESULT:      -6.2      6.518      8.937
REMARK  6 active torsions:
REMARK  status: ('A' for Active; 'I' for Inactive)
REMARK    1  A    between atoms: O1_1  and  C2_4 
REMARK    2  A    between atoms: N1_2  and  C9_11 
REMARK    3  A    between atoms: C1_3  and  C2_4 
REMARK    4  A    between atoms: C2_4  and  C5_7 
REMARK    5  A    between atoms: C2_4  and  C10_12 
REMARK    6  A    between atoms: C5_7  and  C9_11 
ROOT
ATOM      1  C2  UNK     1       0.528  37.207 235.710  1.00  0.00     0.090 C 
ENDROOT
BRANCH   1   2
ATOM      2  O1  UNK     1      -0.190  38.455 235.628  1.00  0.00    -0.385 OA
ATOM      3  H20 UNK     1      -0.972  38.339 235.064  1.00  0.00     0.211 HD
ENDBRANCH   1   2
BRANCH   1   4
ATOM      4  C1  UNK     1       1.898  37.552 236.293  1.00  0.00     0.025 C 
ATOM      5  C3  UNK     1       1.791  38.734 237.266  1.00  0.00     0.008 C 
ATOM      6  C6  UNK     1       3.139  39.064 237.902  1.00  0.00     0.000 C 
ATOM      7  C8  UNK     1       3.756  37.844 238.580  1.00  0.00     0.000 C 
ATOM      8  C7  UNK     1       3.864  36.664 237.620  1.00  0.00     0.000 C 
ATOM      9  C4  UNK     1       2.517  36.329 236.983  1.00  0.00     0.008 C 
ENDBRANCH   1   4
BRANCH   1  10
ATOM     10  C5  UNK     1      -0.277  36.287 236.672  1.00  0.00     0.073 C 
BRANCH  10  11
ATOM     11  C9  UNK     1      -1.174  37.028 237.667  1.00  0.00     0.276 C 
BRANCH  11  12
ATOM     12  N1  UNK     1      -2.506  36.424 237.685  1.00  0.00     0.088 N 
ATOM     13  C11 UNK     1      -2.564  35.335 238.669  1.00  0.00     0.272 C 
ATOM     14  C13 UNK     1      -3.964  34.723 238.736  1.00  0.00     0.030 C 
ATOM     15  C15 UNK     1      -4.425  34.242 237.365  1.00  0.00     0.003 C 
ATOM     16  C14 UNK     1      -4.284  35.357 236.334  1.00  0.00     0.030 C 
ATOM     17  C12 UNK     1      -2.873  35.948 236.344  1.00  0.00     0.272 C 
ENDBRANCH  11  12
ENDBRANCH  10  11
ENDBRANCH   1  10
BRANCH   1  18
ATOM     18  C10 UNK     1       0.548  36.638 234.288  1.00  0.00    -0.024 A 
ATOM     19  C16 UNK     1       0.052  35.373 234.079  1.00  0.00     0.010 A 
ATOM     20  C18 UNK     1       0.069  34.855 232.784  1.00  0.00     0.001 A 
ATOM     21  C20 UNK     1       0.581  35.618 231.734  1.00  0.00     0.000 A 
ATOM     22  C19 UNK     1       1.075  36.899 231.980  1.00  0.00     0.001 A 
ATOM     23  C17 UNK     1       1.059  37.416 233.276  1.00  0.00     0.010 A 
ENDBRANCH   1  18
TORSDOF 6
ENDMDL
MODEL 9
REMARK VINA RESULT:      -6.1      6.909     11.247
REMARK  6 active torsions:
REMARK  status: ('A' for Active; 'I' for Inactive)
REMARK    1  A    between atoms: O1_1  and  C2_4 
REMARK    2  A    between atoms: N1_2  and  C9_11 
REMARK    3  A    between atoms: C1_3  and  C2_4 
REMARK    4  A    between atoms: C2_4  and  C5_7 
REMARK    5  A    between atoms: C2_4  and  C10_12 
REMARK    6  A    between atoms: C5_7  and  C9_11 
ROOT
ATOM      1  C2  UNK     1       1.010  36.042 238.460  1.00  0.00     0.090 C 
ENDROOT
BRANCH   1   2
ATOM      2  O1  UNK     1       0.358  35.651 239.687  1.00  0.00    -0.385 OA
ATOM      3  H20 UNK     1       0.944  35.061 240.188  1.00  0.00     0.211 HD
ENDBRANCH   1   2
BRANCH   1   4
ATOM      4  C1  UNK     1       1.507  34.745 237.822  1.00  0.00     0.025 C 
ATOM      5  C3  UNK     1       2.798  34.991 237.031  1.00  0.00     0.008 C 
ATOM      6  C6  UNK     1       3.344  33.699 236.428  1.00  0.00     0.000 C 
ATOM      7  C8  UNK     1       3.544  32.622 237.490  1.00  0.00     0.000 C 
ATOM      8  C7  UNK     1       2.265  32.373 238.283  1.00  0.00     0.000 C 
ATOM      9  C4  UNK     1       1.717  33.663 238.890  1.00  0.00     0.008 C 
ENDBRANCH   1   4
BRANCH   1  10
ATOM     10  C5  UNK     1      -0.071  36.726 237.575  1.00  0.00     0.073 C 
BRANCH  10  11
ATOM     11  C9  UNK     1      -0.793  35.788 236.604  1.00  0.00     0.276 C 
BRANCH  11  12
ATOM     12  N1  UNK     1      -0.575  36.229 235.226  1.00  0.00     0.088 N 
ATOM     13  C11 UNK     1       0.228  35.241 234.492  1.00  0.00     0.272 C 
ATOM     14  C13 UNK     1       0.425  35.663 233.035  1.00  0.00     0.030 C 
ATOM     15  C15 UNK     1       1.050  37.051 232.939  1.00  0.00     0.003 C 
ATOM     16  C14 UNK     1       0.254  38.051 233.772  1.00  0.00     0.030 C 
ATOM     17  C12 UNK     1       0.063  37.553 235.205  1.00  0.00     0.272 C 
ENDBRANCH  11  12
ENDBRANCH  10  11
ENDBRANCH   1  10
BRANCH   1  18
ATOM     18  C10 UNK     1       2.105  37.034 238.863  1.00  0.00    -0.024 A 
ATOM     19  C16 UNK     1       2.291  38.156 238.091  1.00  0.00     0.010 A 
ATOM     20  C18 UNK     1       3.288  39.061 238.458  1.00  0.00     0.001 A 
ATOM     21  C20 UNK     1       4.070  38.816 239.587  1.00  0.00     0.000 A 
ATOM     22  C19 UNK     1       3.856  37.667 240.348  1.00  0.00     0.001 A 
ATOM     23  C17 UNK     1       2.858  36.763 239.981  1.00  0.00     0.010 A 
ENDBRANCH   1  18
TORSDOF 6
ENDMDL
