MODEL 1
REMARK VINA RESULT:      -6.1      0.000      0.000
REMARK  6 active torsions:
REMARK  status: ('A' for Active; 'I' for Inactive)
REMARK    1  A    between atoms: O1_1  and  C1_4 
REMARK    2  A    between atoms: O2_2  and  C16_19 
REMARK    3  A    between atoms: N1_3  and  C8_11 
REMARK    4  A    between atoms: C1_4  and  C2_5 
REMARK    5  A    between atoms: C2_5  and  C8_11 
REMARK    6  A    between atoms: C2_5  and  C9_12 
ROOT
ATOM      1  C2  UNK     1       0.931  36.573 235.059  1.00  0.00     0.081 C 
ENDROOT
BRANCH   1   2
ATOM      2  C1  UNK     1       1.617  37.734 235.781  1.00  0.00     0.067 C 
ATOM      3  C3  UNK     1       2.707  37.208 236.728  1.00  0.00     0.038 C 
ATOM      4  C5  UNK     1       3.358  38.327 237.543  1.00  0.00     0.003 C 
ATOM      5  C7  UNK     1       2.320  39.150 238.297  1.00  0.00     0.000 C 
ATOM      6  C6  UNK     1       1.246  39.696 237.361  1.00  0.00     0.003 C 
ATOM      7  C4  UNK     1       0.587  38.580 236.548  1.00  0.00     0.038 C 
BRANCH   2   8
ATOM      8  O1  UNK     1       2.248  38.552 234.792  1.00  0.00    -0.389 OA
ATOM      9  H14 UNK     1       1.609  39.217 234.485  1.00  0.00     0.210 HD
ENDBRANCH   2   8
ENDBRANCH   1   2
BRANCH   1  10
ATOM     10  C8  UNK     1      -0.191  35.920 235.895  1.00  0.00     0.283 C 
BRANCH  10  11
ATOM     11  N1  UNK     1       0.121  34.539 236.252  1.00  0.00     0.080 N 
ATOM     12  C12 UNK     1       0.433  34.435 237.677  1.00  0.00     0.309 C 
ATOM     13  C13 UNK     1       1.239  34.042 235.449  1.00  0.00     0.309 C 
ENDBRANCH  10  11
ENDBRANCH   1  10
BRANCH   1  14
ATOM     14  C9  UNK     1       0.392  37.020 233.705  1.00  0.00    -0.049 A 
ATOM     15  C10 UNK     1       1.040  36.605 232.561  1.00  0.00     0.010 A 
ATOM     16  C14 UNK     1       0.546  37.014 231.322  1.00  0.00     0.037 A 
ATOM     17  C16 UNK     1      -0.583  37.828 231.256  1.00  0.00     0.068 A 
ATOM     18  C15 UNK     1      -1.221  38.234 232.429  1.00  0.00     0.037 A 
ATOM     19  C11 UNK     1      -0.728  37.824 233.668  1.00  0.00     0.010 A 
BRANCH  17  20
ATOM     20  O2  UNK     1      -1.064  38.227 230.047  1.00  0.00    -0.356 OA
ATOM     21  C17 UNK     1      -1.242  39.629 229.849  1.00  0.00     0.210 C 
ENDBRANCH  17  20
ENDBRANCH   1  14
TORSDOF 6
ENDMDL
MODEL 2
REMARK VINA RESULT:      -5.7      1.139      1.832
REMARK  6 active torsions:
REMARK  status: ('A' for Active; 'I' for Inactive)
REMARK    1  A    between atoms: O1_1  and  C1_4 
REMARK    2  A    between atoms: O2_2  and  C16_19 
REMARK    3  A    between atoms: N1_3  and  C8_11 
REMARK    4  A    between atoms: C1_4  and  C2_5 
REMARK    5  A    between atoms: C2_5  and  C8_11 
REMARK    6  A    between atoms: C2_5  and  C9_12 
ROOT
ATOM      1  C2  UNK     1       0.388  36.821 235.555  1.00  0.00     0.081 C 
ENDROOT
BRANCH   1   2
ATOM      2  C1  UNK     1       1.566  37.640 236.084  1.00  0.00     0.067 C 
ATOM      3  C3  UNK     1       2.677  36.711 236.600  1.00  0.00     0.038 C 
ATOM      4  C5  UNK     1       3.838  37.485 237.226  1.00  0.00     0.003 C 
ATOM      5  C7  UNK     1       3.358  38.434 238.319  1.00  0.00     0.000 C 
ATOM      6  C6  UNK     1       2.271  39.375 237.809  1.00  0.00     0.003 C 
ATOM      7  C4  UNK     1       1.104  38.606 237.187  1.00  0.00     0.038 C 
BRANCH   2   8
ATOM      8  O1  UNK     1       2.097  38.398 234.993  1.00  0.00    -0.389 OA
ATOM      9  H14 UNK     1       3.065  38.309 234.996  1.00  0.00     0.210 HD
ENDBRANCH   2   8
ENDBRANCH   1   2
BRANCH   1  10
ATOM     10  C8  UNK     1      -0.908  37.035 236.366  1.00  0.00     0.283 C 
BRANCH  10  11
ATOM     11  N1  UNK     1      -1.254  35.867 237.170  1.00  0.00     0.080 N 
ATOM     12  C12 UNK     1      -1.601  34.736 236.309  1.00  0.00     0.309 C 
ATOM     13  C13 UNK     1      -2.361  36.176 238.076  1.00  0.00     0.309 C 
ENDBRANCH  10  11
ENDBRANCH   1  10
BRANCH   1  14
ATOM     14  C9  UNK     1       0.145  37.113 234.079  1.00  0.00    -0.049 A 
ATOM     15  C10 UNK     1      -0.861  37.990 233.732  1.00  0.00     0.010 A 
ATOM     16  C14 UNK     1      -1.083  38.258 232.381  1.00  0.00     0.037 A 
ATOM     17  C16 UNK     1      -0.295  37.643 231.409  1.00  0.00     0.068 A 
ATOM     18  C15 UNK     1       0.717  36.760 231.787  1.00  0.00     0.037 A 
ATOM     19  C11 UNK     1       0.940  36.492 233.138  1.00  0.00     0.010 A 
BRANCH  17  20
ATOM     20  O2  UNK     1      -0.513  37.905 230.091  1.00  0.00    -0.356 OA
ATOM     21  C17 UNK     1      -0.909  39.232 229.749  1.00  0.00     0.210 C 
ENDBRANCH  17  20
ENDBRANCH   1  14
TORSDOF 6
ENDMDL
MODEL 3
REMARK VINA RESULT:      -5.5      1.772      5.876
REMARK  6 active torsions:
REMARK  status: ('A' for Active; 'I' for Inactive)
REMARK    1  A    between atoms: O1_1  and  C1_4 
REMARK    2  A    between atoms: O2_2  and  C16_19 
REMARK    3  A    between atoms: N1_3  and  C8_11 
REMARK    4  A    between atoms: C1_4  and  C2_5 
REMARK    5  A    between atoms: C2_5  and  C8_11 
REMARK    6  A    between atoms: C2_5  and  C9_12 
ROOT
ATOM      1  C2  UNK     1      -0.133  37.028 236.130  1.00  0.00     0.081 C 
ENDROOT
BRANCH   1   2
ATOM      2  C1  UNK     1       0.083  37.546 234.706  1.00  0.00     0.067 C 
ATOM      3  C3  UNK     1      -1.262  37.900 234.054  1.00  0.00     0.038 C 
ATOM      4  C5  UNK     1      -1.105  38.335 232.596  1.00  0.00     0.003 C 
ATOM      5  C7  UNK     1      -0.350  37.293 231.777  1.00  0.00     0.000 C 
ATOM      6  C6  UNK     1       0.997  36.952 232.405  1.00  0.00     0.003 C 
ATOM      7  C4  UNK     1       0.845  36.511 233.862  1.00  0.00     0.038 C 
BRANCH   2   8
ATOM      8  O1  UNK     1       0.862  38.743 234.790  1.00  0.00    -0.389 OA
ATOM      9  H14 UNK     1       1.803  38.501 234.791  1.00  0.00     0.210 HD
ENDBRANCH   2   8
ENDBRANCH   1   2
BRANCH   1  10
ATOM     10  C8  UNK     1      -0.175  35.487 236.210  1.00  0.00     0.283 C 
BRANCH  10  11
ATOM     11  N1  UNK     1      -1.513  34.989 236.516  1.00  0.00     0.080 N 
ATOM     12  C12 UNK     1      -2.167  34.496 235.304  1.00  0.00     0.309 C 
ATOM     13  C13 UNK     1      -2.321  36.038 237.140  1.00  0.00     0.309 C 
ENDBRANCH  10  11
ENDBRANCH   1  10
BRANCH   1  14
ATOM     14  C9  UNK     1       0.929  37.580 237.073  1.00  0.00    -0.049 A 
ATOM     15  C10 UNK     1       2.167  36.974 237.109  1.00  0.00     0.010 A 
ATOM     16  C14 UNK     1       3.139  37.479 237.973  1.00  0.00     0.037 A 
ATOM     17  C16 UNK     1       2.851  38.578 238.780  1.00  0.00     0.068 A 
ATOM     18  C15 UNK     1       1.590  39.174 238.724  1.00  0.00     0.037 A 
ATOM     19  C11 UNK     1       0.618  38.669 237.860  1.00  0.00     0.010 A 
BRANCH  17  20
ATOM     20  O2  UNK     1       3.800  39.071 239.622  1.00  0.00    -0.356 OA
ATOM     21  C17 UNK     1       4.751  38.143 240.143  1.00  0.00     0.210 C 
ENDBRANCH  17  20
ENDBRANCH   1  14
TORSDOF 6
ENDMDL
MODEL 4
REMARK VINA RESULT:      -5.4      2.014      3.584
REMARK  6 active torsions:
REMARK  status: ('A' for Active; 'I' for Inactive)
REMARK    1  A    between atoms: O1_1  and  C1_4 
REMARK    2  A    between atoms: O2_2  and  C16_19 
REMARK    3  A    between atoms: N1_3  and  C8_11 
REMARK    4  A    between atoms: C1_4  and  C2_5 
REMARK    5  A    between atoms: C2_5  and  C8_11 
REMARK    6  A    between atoms: C2_5  and  C9_12 
ROOT
ATOM      1  C2  UNK     1       0.960  37.546 236.334  1.00  0.00     0.081 C 
ENDROOT
BRANCH   1   2
ATOM      2  C1  UNK     1       1.331  36.138 236.802  1.00  0.00     0.067 C 
ATOM      3  C3  UNK     1       2.857  35.954 236.794  1.00  0.00     0.038 C 
ATOM      4  C5  UNK     1       3.273  34.530 237.166  1.00  0.00     0.003 C 
ATOM      5  C7  UNK     1       2.586  33.494 236.282  1.00  0.00     0.000 C 
ATOM      6  C6  UNK     1       1.069  33.654 236.303  1.00  0.00     0.003 C 
ATOM      7  C4  UNK     1       0.647  35.076 235.926  1.00  0.00     0.038 C 
BRANCH   2   8
ATOM      8  O1  UNK     1       0.877  35.992 238.151  1.00  0.00    -0.389 OA
ATOM      9  H14 UNK     1       0.386  36.792 238.401  1.00  0.00     0.210 HD
ENDBRANCH   2   8
ENDBRANCH   1   2
BRANCH   1  10
ATOM     10  C8  UNK     1       2.113  38.559 236.499  1.00  0.00     0.283 C 
BRANCH  10  11
ATOM     11  N1  UNK     1       1.902  39.452 237.635  1.00  0.00     0.080 N 
ATOM     12  C12 UNK     1       2.649  38.982 238.802  1.00  0.00     0.309 C 
ATOM     13  C13 UNK     1       0.476  39.553 237.951  1.00  0.00     0.309 C 
ENDBRANCH  10  11
ENDBRANCH   1  10
BRANCH   1  14
ATOM     14  C9  UNK     1       0.474  37.526 234.890  1.00  0.00    -0.049 A 
ATOM     15  C10 UNK     1       1.368  37.202 233.892  1.00  0.00     0.010 A 
ATOM     16  C14 UNK     1       0.923  37.184 232.570  1.00  0.00     0.037 A 
ATOM     17  C16 UNK     1      -0.405  37.488 232.276  1.00  0.00     0.068 A 
ATOM     18  C15 UNK     1      -1.291  37.812 233.306  1.00  0.00     0.037 A 
ATOM     19  C11 UNK     1      -0.846  37.830 234.628  1.00  0.00     0.010 A 
BRANCH  17  20
ATOM     20  O2  UNK     1      -0.839  37.470 230.986  1.00  0.00    -0.356 OA
ATOM     21  C17 UNK     1      -1.059  36.192 230.393  1.00  0.00     0.210 C 
ENDBRANCH  17  20
ENDBRANCH   1  14
TORSDOF 6
ENDMDL
MODEL 5
REMARK VINA RESULT:      -5.2      6.469      9.202
REMARK  6 active torsions:
REMARK  status: ('A' for Active; 'I' for Inactive)
REMARK    1  A    between atoms: O1_1  and  C1_4 
REMARK    2  A    between atoms: O2_2  and  C16_19 
REMARK    3  A    between atoms: N1_3  and  C8_11 
REMARK    4  A    between atoms: C1_4  and  C2_5 
REMARK    5  A    between atoms: C2_5  and  C8_11 
REMARK    6  A    between atoms: C2_5  and  C9_12 
ROOT
ATOM      1  C2  UNK     1      -1.299  43.019 227.817  1.00  0.00     0.081 C 
ENDROOT
BRANCH   1   2
ATOM      2  C1  UNK     1       0.124  43.511 228.089  1.00  0.00     0.067 C 
ATOM      3  C3  UNK     1       1.151  42.475 227.607  1.00  0.00     0.038 C 
ATOM      4  C5  UNK     1       2.587  42.882 227.942  1.00  0.00     0.003 C 
ATOM      5  C7  UNK     1       2.755  43.178 229.429  1.00  0.00     0.000 C 
ATOM      6  C6  UNK     1       1.754  44.223 229.911  1.00  0.00     0.003 C 
ATOM      7  C4  UNK     1       0.315  43.819 229.583  1.00  0.00     0.038 C 
BRANCH   2   8
ATOM      8  O1  UNK     1       0.322  44.712 227.337  1.00  0.00    -0.389 OA
ATOM      9  H14 UNK     1      -0.089  45.450 227.817  1.00  0.00     0.210 HD
ENDBRANCH   2   8
ENDBRANCH   1   2
BRANCH   1  10
ATOM     10  C8  UNK     1      -1.562  42.732 226.323  1.00  0.00     0.283 C 
BRANCH  10  11
ATOM     11  N1  UNK     1      -2.974  42.477 226.052  1.00  0.00     0.080 N 
ATOM     12  C12 UNK     1      -3.151  41.966 224.692  1.00  0.00     0.309 C 
ATOM     13  C13 UNK     1      -3.762  43.696 226.244  1.00  0.00     0.309 C 
ENDBRANCH  10  11
ENDBRANCH   1  10
BRANCH   1  14
ATOM     14  C9  UNK     1      -1.616  41.788 228.657  1.00  0.00    -0.049 A 
ATOM     15  C10 UNK     1      -0.590  40.930 228.994  1.00  0.00     0.010 A 
ATOM     16  C14 UNK     1      -0.880  39.803 229.763  1.00  0.00     0.037 A 
ATOM     17  C16 UNK     1      -2.189  39.559 230.178  1.00  0.00     0.068 A 
ATOM     18  C15 UNK     1      -3.209  40.444 229.824  1.00  0.00     0.037 A 
ATOM     19  C11 UNK     1      -2.919  41.571 229.055  1.00  0.00     0.010 A 
BRANCH  17  20
ATOM     20  O2  UNK     1      -2.471  38.460 230.928  1.00  0.00    -0.356 OA
ATOM     21  C17 UNK     1      -2.072  37.195 230.402  1.00  0.00     0.210 C 
ENDBRANCH  17  20
ENDBRANCH   1  14
TORSDOF 6
ENDMDL
MODEL 6
REMARK VINA RESULT:      -5.2      2.144      5.637
REMARK  6 active torsions:
REMARK  status: ('A' for Active; 'I' for Inactive)
REMARK    1  A    between atoms: O1_1  and  C1_4 
REMARK    2  A    between atoms: O2_2  and  C16_19 
REMARK    3  A    between atoms: N1_3  and  C8_11 
REMARK    4  A    between atoms: C1_4  and  C2_5 
REMARK    5  A    between atoms: C2_5  and  C8_11 
REMARK    6  A    between atoms: C2_5  and  C9_12 
ROOT
ATOM      1  C2  UNK     1       0.789  35.080 235.774  1.00  0.00     0.081 C 
ENDROOT
BRANCH   1   2
ATOM      2  C1  UNK     1       0.298  35.565 234.408  1.00  0.00     0.067 C 
ATOM      3  C3  UNK     1       0.383  34.431 233.374  1.00  0.00     0.038 C 
ATOM      4  C5  UNK     1      -0.010  34.895 231.970  1.00  0.00     0.003 C 
ATOM      5  C7  UNK     1       0.802  36.108 231.531  1.00  0.00     0.000 C 
ATOM      6  C6  UNK     1       0.704  37.247 232.541  1.00  0.00     0.003 C 
ATOM      7  C4  UNK     1       1.102  36.791 233.946  1.00  0.00     0.038 C 
BRANCH   2   8
ATOM      8  O1  UNK     1      -1.078  35.934 234.545  1.00  0.00    -0.389 OA
ATOM      9  H14 UNK     1      -1.267  36.082 235.487  1.00  0.00     0.210 HD
ENDBRANCH   2   8
ENDBRANCH   1   2
BRANCH   1  10
ATOM     10  C8  UNK     1       1.637  33.793 235.687  1.00  0.00     0.283 C 
BRANCH  10  11
ATOM     11  N1  UNK     1       1.102  32.725 236.526  1.00  0.00     0.080 N 
ATOM     12  C12 UNK     1       1.027  31.471 235.776  1.00  0.00     0.309 C 
ATOM     13  C13 UNK     1      -0.219  33.089 237.041  1.00  0.00     0.309 C 
ENDBRANCH  10  11
ENDBRANCH   1  10
BRANCH   1  14
ATOM     14  C9  UNK     1       1.564  36.179 236.491  1.00  0.00    -0.049 A 
ATOM     15  C10 UNK     1       2.936  36.077 236.577  1.00  0.00     0.010 A 
ATOM     16  C14 UNK     1       3.646  37.083 237.234  1.00  0.00     0.037 A 
ATOM     17  C16 UNK     1       2.967  38.167 237.789  1.00  0.00     0.068 A 
ATOM     18  C15 UNK     1       1.577  38.246 237.688  1.00  0.00     0.037 A 
ATOM     19  C11 UNK     1       0.867  37.240 237.031  1.00  0.00     0.010 A 
BRANCH  17  20
ATOM     20  O2  UNK     1       3.659  39.147 238.430  1.00  0.00    -0.356 OA
ATOM     21  C17 UNK     1       4.145  38.851 239.739  1.00  0.00     0.210 C 
ENDBRANCH  17  20
ENDBRANCH   1  14
TORSDOF 6
ENDMDL
MODEL 7
REMARK VINA RESULT:      -5.2      6.979      9.090
REMARK  6 active torsions:
REMARK  status: ('A' for Active; 'I' for Inactive)
REMARK    1  A    between atoms: O1_1  and  C1_4 
REMARK    2  A    between atoms: O2_2  and  C16_19 
REMARK    3  A    between atoms: N1_3  and  C8_11 
REMARK    4  A    between atoms: C1_4  and  C2_5 
REMARK    5  A    between atoms: C2_5  and  C8_11 
REMARK    6  A    between atoms: C2_5  and  C9_12 
ROOT
ATOM      1  C2  UNK     1      -1.068  42.022 228.398  1.00  0.00     0.081 C 
ENDROOT
BRANCH   1   2
ATOM      2  C1  UNK     1       0.035  43.082 228.415  1.00  0.00     0.067 C 
ATOM      3  C3  UNK     1       1.253  42.601 227.610  1.00  0.00     0.038 C 
ATOM      4  C5  UNK     1       2.419  43.589 227.676  1.00  0.00     0.003 C 
ATOM      5  C7  UNK     1       2.801  43.914 229.116  1.00  0.00     0.000 C 
ATOM      6  C6  UNK     1       1.602  44.413 229.917  1.00  0.00     0.003 C 
ATOM      7  C4  UNK     1       0.434  43.427 229.859  1.00  0.00     0.038 C 
BRANCH   2   8
ATOM      8  O1  UNK     1      -0.477  44.257 227.780  1.00  0.00    -0.389 OA
ATOM      9  H14 UNK     1      -1.432  44.140 227.635  1.00  0.00     0.210 HD
ENDBRANCH   2   8
ENDBRANCH   1   2
BRANCH   1  10
ATOM     10  C8  UNK     1      -1.781  41.873 229.759  1.00  0.00     0.283 C 
BRANCH  10  11
ATOM     11  N1  UNK     1      -1.686  40.514 230.284  1.00  0.00     0.080 N 
ATOM     12  C12 UNK     1      -0.695  39.742 229.533  1.00  0.00     0.309 C 
ATOM     13  C13 UNK     1      -2.990  39.852 230.234  1.00  0.00     0.309 C 
ENDBRANCH  10  11
ENDBRANCH   1  10
BRANCH   1  14
ATOM     14  C9  UNK     1      -2.081  42.314 227.298  1.00  0.00    -0.049 A 
ATOM     15  C10 UNK     1      -1.623  42.573 226.023  1.00  0.00     0.010 A 
ATOM     16  C14 UNK     1      -2.551  42.840 225.016  1.00  0.00     0.037 A 
ATOM     17  C16 UNK     1      -3.914  42.840 225.305  1.00  0.00     0.068 A 
ATOM     18  C15 UNK     1      -4.352  42.574 226.604  1.00  0.00     0.037 A 
ATOM     19  C11 UNK     1      -3.425  42.307 227.611  1.00  0.00     0.010 A 
BRANCH  17  20
ATOM     20  O2  UNK     1      -4.819  43.100 224.322  1.00  0.00    -0.356 OA
ATOM     21  C17 UNK     1      -5.770  44.134 224.572  1.00  0.00     0.210 C 
ENDBRANCH  17  20
ENDBRANCH   1  14
TORSDOF 6
ENDMDL
MODEL 8
REMARK VINA RESULT:      -5.2      4.504      8.516
REMARK  6 active torsions:
REMARK  status: ('A' for Active; 'I' for Inactive)
REMARK    1  A    between atoms: O1_1  and  C1_4 
REMARK    2  A    between atoms: O2_2  and  C16_19 
REMARK    3  A    between atoms: N1_3  and  C8_11 
REMARK    4  A    between atoms: C1_4  and  C2_5 
REMARK    5  A    between atoms: C2_5  and  C8_11 
REMARK    6  A    between atoms: C2_5  and  C9_12 
ROOT
ATOM      1  C2  UNK     1      -1.906  40.649 229.308  1.00  0.00     0.081 C 
ENDROOT
BRANCH   1   2
ATOM      2  C1  UNK     1      -3.396  40.535 228.977  1.00  0.00     0.067 C 
ATOM      3  C3  UNK     1      -3.772  39.073 228.694  1.00  0.00     0.038 C 
ATOM      4  C5  UNK     1      -5.233  38.921 228.266  1.00  0.00     0.003 C 
ATOM      5  C7  UNK     1      -5.568  39.820 227.080  1.00  0.00     0.000 C 
ATOM      6  C6  UNK     1      -5.219  41.278 227.362  1.00  0.00     0.003 C 
ATOM      7  C4  UNK     1      -3.757  41.436 227.784  1.00  0.00     0.038 C 
BRANCH   2   8
ATOM      8  O1  UNK     1      -4.133  40.966 230.125  1.00  0.00    -0.389 OA
ATOM      9  H14 UNK     1      -3.863  41.873 230.345  1.00  0.00     0.210 HD
ENDBRANCH   2   8
ENDBRANCH   1   2
BRANCH   1  10
ATOM     10  C8  UNK     1      -1.521  42.029 229.885  1.00  0.00     0.283 C 
BRANCH  10  11
ATOM     11  N1  UNK     1      -0.162  42.417 229.521  1.00  0.00     0.080 N 
ATOM     12  C12 UNK     1       0.047  43.845 229.763  1.00  0.00     0.309 C 
ATOM     13  C13 UNK     1       0.106  42.094 228.119  1.00  0.00     0.309 C 
ENDBRANCH  10  11
ENDBRANCH   1  10
BRANCH   1  14
ATOM     14  C9  UNK     1      -1.476  39.538 230.258  1.00  0.00    -0.049 A 
ATOM     15  C10 UNK     1      -0.723  38.495 229.763  1.00  0.00     0.010 A 
ATOM     16  C14 UNK     1      -0.329  37.477 230.632  1.00  0.00     0.037 A 
ATOM     17  C16 UNK     1      -0.697  37.527 231.976  1.00  0.00     0.068 A 
ATOM     18  C15 UNK     1      -1.460  38.594 232.452  1.00  0.00     0.037 A 
ATOM     19  C11 UNK     1      -1.854  39.612 231.582  1.00  0.00     0.010 A 
BRANCH  17  20
ATOM     20  O2  UNK     1      -0.313  36.534 232.823  1.00  0.00    -0.356 OA
ATOM     21  C17 UNK     1       0.406  35.438 232.258  1.00  0.00     0.210 C 
ENDBRANCH  17  20
ENDBRANCH   1  14
TORSDOF 6
ENDMDL
MODEL 9
REMARK VINA RESULT:      -5.2      1.671      5.859
REMARK  6 active torsions:
REMARK  status: ('A' for Active; 'I' for Inactive)
REMARK    1  A    between atoms: O1_1  and  C1_4 
REMARK    2  A    between atoms: O2_2  and  C16_19 
REMARK    3  A    between atoms: N1_3  and  C8_11 
REMARK    4  A    between atoms: C1_4  and  C2_5 
REMARK    5  A    between atoms: C2_5  and  C8_11 
REMARK    6  A    between atoms: C2_5  and  C9_12 
ROOT
ATOM      1  C2  UNK     1       0.744  36.202 235.693  1.00  0.00     0.081 C 
ENDROOT
BRANCH   1   2
ATOM      2  C1  UNK     1       0.561  37.076 234.450  1.00  0.00     0.067 C 
ATOM      3  C3  UNK     1      -0.814  37.760 234.473  1.00  0.00     0.038 C 
ATOM      4  C5  UNK     1      -1.080  38.572 233.204  1.00  0.00     0.003 C 
ATOM      5  C7  UNK     1      -0.903  37.726 231.947  1.00  0.00     0.000 C 
ATOM      6  C6  UNK     1       0.469  37.061 231.905  1.00  0.00     0.003 C 
ATOM      7  C4  UNK     1       0.738  36.243 233.170  1.00  0.00     0.038 C 
BRANCH   2   8
ATOM      8  O1  UNK     1       1.563  38.097 234.483  1.00  0.00    -0.389 OA
ATOM      9  H14 UNK     1       2.365  37.731 234.892  1.00  0.00     0.210 HD
ENDBRANCH   2   8
ENDBRANCH   1   2
BRANCH   1  10
ATOM     10  C8  UNK     1       1.292  34.796 235.365  1.00  0.00     0.283 C 
BRANCH  10  11
ATOM     11  N1  UNK     1       0.630  33.753 236.144  1.00  0.00     0.080 N 
ATOM     12  C12 UNK     1       1.618  32.882 236.780  1.00  0.00     0.309 C 
ATOM     13  C13 UNK     1      -0.267  32.969 235.293  1.00  0.00     0.309 C 
ENDBRANCH  10  11
ENDBRANCH   1  10
BRANCH   1  14
ATOM     14  C9  UNK     1       1.636  36.895 236.715  1.00  0.00    -0.049 A 
ATOM     15  C10 UNK     1       1.082  37.845 237.547  1.00  0.00     0.010 A 
ATOM     16  C14 UNK     1       1.899  38.479 238.483  1.00  0.00     0.037 A 
ATOM     17  C16 UNK     1       3.251  38.148 238.566  1.00  0.00     0.068 A 
ATOM     18  C15 UNK     1       3.787  37.182 237.713  1.00  0.00     0.037 A 
ATOM     19  C11 UNK     1       2.970  36.548 236.777  1.00  0.00     0.010 A 
BRANCH  17  20
ATOM     20  O2  UNK     1       4.048  38.767 239.479  1.00  0.00    -0.356 OA
ATOM     21  C17 UNK     1       4.423  38.013 240.631  1.00  0.00     0.210 C 
ENDBRANCH  17  20
ENDBRANCH   1  14
TORSDOF 6
ENDMDL
