MODEL 1
REMARK VINA RESULT:      -6.0      0.000      0.000
REMARK  2 active torsions:
REMARK  status: ('A' for Active; 'I' for Inactive)
REMARK    1  A    between atoms: N1_3  and  N2_5 
REMARK       I    between atoms: N3_7  and  C8_16 
REMARK       I    between atoms: N4_8  and  C8_16 
REMARK    2  A    between atoms: C1_9  and  C7_15 
ROOT
ATOM      1  N1  UNK     1      -0.124  43.036 229.547  1.00  0.00    -0.297 N 
ATOM      2  H1  UNK     1      -0.766  43.671 230.022  1.00  0.00     0.186 HD
ATOM      3  C7  UNK     1      -0.492  42.027 228.818  1.00  0.00     0.122 C 
ENDROOT
BRANCH   1   4
ATOM      4  N2  UNK     1       1.264  43.138 229.595  1.00  0.00    -0.133 N 
ATOM      5  C8  UNK     1       1.660  44.288 230.074  1.00  0.00     0.684 C 
ATOM      6  N3  UNK     1       2.962  44.698 230.249  1.00  0.00    -0.234 N 
ATOM      7  N4  UNK     1       0.753  45.242 230.467  1.00  0.00    -0.234 N 
ATOM      8  H5  UNK     1       3.183  45.612 230.629  1.00  0.00     0.174 HD
ATOM      9  H6  UNK     1       3.739  44.094 230.003  1.00  0.00     0.174 HD
ATOM     10  H7  UNK     1      -0.245  45.081 230.395  1.00  0.00     0.174 HD
ATOM     11  H8  UNK     1       1.054  46.137 230.838  1.00  0.00     0.174 HD
ATOM     12  H2  UNK     1       1.899  42.399 229.292  1.00  0.00     0.205 HD
ENDBRANCH   1   4
BRANCH   3  13
ATOM     13  C1  UNK     1      -1.897  41.690 228.597  1.00  0.00     0.024 A 
ATOM     14  C2  UNK     1      -2.590  42.257 227.528  1.00  0.00     0.047 A 
ATOM     15 Cl1  UNK     1      -1.832  43.360 226.436  1.00  0.00    -0.083 Cl
ATOM     16  C4  UNK     1      -3.932  41.936 227.318  1.00  0.00     0.025 A 
ATOM     17  C6  UNK     1      -4.580  41.049 228.177  1.00  0.00     0.003 A 
ATOM     18  C5  UNK     1      -3.886  40.481 229.246  1.00  0.00     0.025 A 
ATOM     19  C3  UNK     1      -2.544  40.802 229.456  1.00  0.00     0.047 A 
ATOM     20 Cl2  UNK     1      -1.730  40.072 230.794  1.00  0.00    -0.083 Cl
ENDBRANCH   3  13
TORSDOF 2
ENDMDL
MODEL 2
REMARK VINA RESULT:      -6.0      0.112      2.437
REMARK  2 active torsions:
REMARK  status: ('A' for Active; 'I' for Inactive)
REMARK    1  A    between atoms: N1_3  and  N2_5 
REMARK       I    between atoms: N3_7  and  C8_16 
REMARK       I    between atoms: N4_8  and  C8_16 
REMARK    2  A    between atoms: C1_9  and  C7_15 
ROOT
ATOM      1  N1  UNK     1      -0.057  43.032 229.560  1.00  0.00    -0.297 N 
ATOM      2  H1  UNK     1      -0.697  43.704 229.985  1.00  0.00     0.186 HD
ATOM      3  C7  UNK     1      -0.430  41.978 228.899  1.00  0.00     0.122 C 
ENDROOT
BRANCH   1   4
ATOM      4  N2  UNK     1       1.331  43.124 229.612  1.00  0.00    -0.133 N 
ATOM      5  C8  UNK     1       1.733  44.277 230.078  1.00  0.00     0.684 C 
ATOM      6  N3  UNK     1       3.038  44.680 230.253  1.00  0.00    -0.234 N 
ATOM      7  N4  UNK     1       0.832  45.243 230.456  1.00  0.00    -0.234 N 
ATOM      8  H5  UNK     1       3.264  45.597 230.623  1.00  0.00     0.174 HD
ATOM      9  H6  UNK     1       3.811  44.068 230.016  1.00  0.00     0.174 HD
ATOM     10  H7  UNK     1      -0.167  45.088 230.382  1.00  0.00     0.174 HD
ATOM     11  H8  UNK     1       1.138  46.140 230.817  1.00  0.00     0.174 HD
ATOM     12  H2  UNK     1       1.961  42.377 229.320  1.00  0.00     0.205 HD
ENDBRANCH   1   4
BRANCH   3  13
ATOM     13  C1  UNK     1      -1.836  41.640 228.690  1.00  0.00     0.024 A 
ATOM     14  C2  UNK     1      -2.471  40.736 229.541  1.00  0.00     0.047 A 
ATOM     15 Cl1  UNK     1      -1.639  39.994 230.861  1.00  0.00    -0.083 Cl
ATOM     16  C4  UNK     1      -3.813  40.412 229.340  1.00  0.00     0.025 A 
ATOM     17  C6  UNK     1      -4.520  40.991 228.287  1.00  0.00     0.003 A 
ATOM     18  C5  UNK     1      -3.885  41.895 227.434  1.00  0.00     0.025 A 
ATOM     19  C3  UNK     1      -2.543  42.219 227.636  1.00  0.00     0.047 A 
ATOM     20 Cl2  UNK     1      -1.803  43.344 226.552  1.00  0.00    -0.083 Cl
ENDBRANCH   3  13
TORSDOF 2
ENDMDL
MODEL 3
REMARK VINA RESULT:      -5.3      1.202      1.492
REMARK  2 active torsions:
REMARK  status: ('A' for Active; 'I' for Inactive)
REMARK    1  A    between atoms: N1_3  and  N2_5 
REMARK       I    between atoms: N3_7  and  C8_16 
REMARK       I    between atoms: N4_8  and  C8_16 
REMARK    2  A    between atoms: C1_9  and  C7_15 
ROOT
ATOM      1  N1  UNK     1       0.109  41.983 228.701  1.00  0.00    -0.297 N 
ATOM      2  H1  UNK     1       0.235  41.383 227.885  1.00  0.00     0.186 HD
ATOM      3  C7  UNK     1      -1.026  42.182 229.300  1.00  0.00     0.122 C 
ENDROOT
BRANCH   1   4
ATOM      4  N2  UNK     1       1.132  42.697 229.319  1.00  0.00    -0.133 N 
ATOM      5  C8  UNK     1       2.058  43.066 228.474  1.00  0.00     0.684 C 
ATOM      6  N3  UNK     1       3.197  43.782 228.767  1.00  0.00    -0.234 N 
ATOM      7  N4  UNK     1       1.967  42.752 227.140  1.00  0.00    -0.234 N 
ATOM      8  H5  UNK     1       3.868  44.029 228.048  1.00  0.00     0.174 HD
ATOM      9  H6  UNK     1       3.396  44.085 229.715  1.00  0.00     0.174 HD
ATOM     10  H7  UNK     1       1.181  42.224 226.776  1.00  0.00     0.174 HD
ATOM     11  H8  UNK     1       2.683  43.035 226.479  1.00  0.00     0.174 HD
ATOM     12  H2  UNK     1       1.156  42.907 230.317  1.00  0.00     0.205 HD
ENDBRANCH   1   4
BRANCH   3  13
ATOM     13  C1  UNK     1      -2.268  41.551 228.858  1.00  0.00     0.024 A 
ATOM     14  C2  UNK     1      -2.937  42.037 227.736  1.00  0.00     0.047 A 
ATOM     15 Cl1  UNK     1      -2.336  43.381 226.831  1.00  0.00    -0.083 Cl
ATOM     16  C4  UNK     1      -4.123  41.436 227.316  1.00  0.00     0.025 A 
ATOM     17  C6  UNK     1      -4.641  40.348 228.018  1.00  0.00     0.003 A 
ATOM     18  C5  UNK     1      -3.971  39.861 229.141  1.00  0.00     0.025 A 
ATOM     19  C3  UNK     1      -2.785  40.462 229.561  1.00  0.00     0.047 A 
ATOM     20 Cl2  UNK     1      -1.994  39.822 230.958  1.00  0.00    -0.083 Cl
ENDBRANCH   3  13
TORSDOF 2
ENDMDL
MODEL 4
REMARK VINA RESULT:      -5.3      1.885      3.113
REMARK  2 active torsions:
REMARK  status: ('A' for Active; 'I' for Inactive)
REMARK    1  A    between atoms: N1_3  and  N2_5 
REMARK       I    between atoms: N3_7  and  C8_16 
REMARK       I    between atoms: N4_8  and  C8_16 
REMARK    2  A    between atoms: C1_9  and  C7_15 
ROOT
ATOM      1  N1  UNK     1      -0.686  42.610 227.182  1.00  0.00    -0.297 N 
ATOM      2  H1  UNK     1      -0.601  41.789 226.582  1.00  0.00     0.186 HD
ATOM      3  C7  UNK     1      -1.681  42.836 227.984  1.00  0.00     0.122 C 
ENDROOT
BRANCH   1   4
ATOM      4  N2  UNK     1       0.251  43.638 227.247  1.00  0.00    -0.133 N 
ATOM      5  C8  UNK     1       1.445  43.201 227.549  1.00  0.00     0.684 C 
ATOM      6  N3  UNK     1       2.585  43.960 227.691  1.00  0.00    -0.234 N 
ATOM      7  N4  UNK     1       1.677  41.864 227.766  1.00  0.00    -0.234 N 
ATOM      8  H5  UNK     1       3.476  43.539 227.929  1.00  0.00     0.174 HD
ATOM      9  H6  UNK     1       2.563  44.965 227.559  1.00  0.00     0.174 HD
ATOM     10  H7  UNK     1       0.929  41.182 227.697  1.00  0.00     0.174 HD
ATOM     11  H8  UNK     1       2.601  41.518 228.002  1.00  0.00     0.174 HD
ATOM     12  H2  UNK     1       0.031  44.619 227.077  1.00  0.00     0.205 HD
ENDBRANCH   1   4
BRANCH   3  13
ATOM     13  C1  UNK     1      -2.808  41.914 228.116  1.00  0.00     0.024 A 
ATOM     14  C2  UNK     1      -2.790  40.927 229.101  1.00  0.00     0.047 A 
ATOM     15 Cl1  UNK     1      -1.462  40.756 230.192  1.00  0.00    -0.083 Cl
ATOM     16  C4  UNK     1      -3.865  40.046 229.225  1.00  0.00     0.025 A 
ATOM     17  C6  UNK     1      -4.957  40.153 228.365  1.00  0.00     0.003 A 
ATOM     18  C5  UNK     1      -4.975  41.140 227.379  1.00  0.00     0.025 A 
ATOM     19  C3  UNK     1      -3.901  42.021 227.255  1.00  0.00     0.047 A 
ATOM     20 Cl2  UNK     1      -3.971  43.226 226.019  1.00  0.00    -0.083 Cl
ENDBRANCH   3  13
TORSDOF 2
ENDMDL
MODEL 5
REMARK VINA RESULT:      -5.2      7.769      9.471
REMARK  2 active torsions:
REMARK  status: ('A' for Active; 'I' for Inactive)
REMARK    1  A    between atoms: N1_3  and  N2_5 
REMARK       I    between atoms: N3_7  and  C8_16 
REMARK       I    between atoms: N4_8  and  C8_16 
REMARK    2  A    between atoms: C1_9  and  C7_15 
ROOT
ATOM      1  N1  UNK     1      -0.321  38.507 234.357  1.00  0.00    -0.297 N 
ATOM      2  H1  UNK     1       0.471  38.574 233.718  1.00  0.00     0.186 HD
ATOM      3  C7  UNK     1      -0.264  37.993 235.549  1.00  0.00     0.122 C 
ENDROOT
BRANCH   1   4
ATOM      4  N2  UNK     1      -1.607  38.955 234.068  1.00  0.00    -0.133 N 
ATOM      5  C8  UNK     1      -1.900  38.834 232.800  1.00  0.00     0.684 C 
ATOM      6  N3  UNK     1      -3.086  39.185 232.196  1.00  0.00    -0.234 N 
ATOM      7  N4  UNK     1      -0.992  38.314 231.910  1.00  0.00    -0.234 N 
ATOM      8  H5  UNK     1      -3.231  39.057 231.200  1.00  0.00     0.174 HD
ATOM      9  H6  UNK     1      -3.849  39.583 232.732  1.00  0.00     0.174 HD
ATOM     10  H7  UNK     1      -0.072  38.012 232.211  1.00  0.00     0.174 HD
ATOM     11  H8  UNK     1      -1.213  38.218 230.924  1.00  0.00     0.174 HD
ATOM     12  H2  UNK     1      -2.247  39.335 234.766  1.00  0.00     0.205 HD
ENDBRANCH   1   4
BRANCH   3  13
ATOM     13  C1  UNK     1       0.971  37.447 236.109  1.00  0.00     0.024 A 
ATOM     14  C2  UNK     1       1.348  36.136 235.820  1.00  0.00     0.047 A 
ATOM     15 Cl1  UNK     1       0.393  35.119 234.801  1.00  0.00    -0.083 Cl
ATOM     16  C4  UNK     1       2.526  35.615 236.357  1.00  0.00     0.025 A 
ATOM     17  C6  UNK     1       3.325  36.404 237.183  1.00  0.00     0.003 A 
ATOM     18  C5  UNK     1       2.948  37.716 237.472  1.00  0.00     0.025 A 
ATOM     19  C3  UNK     1       1.771  38.237 236.935  1.00  0.00     0.047 A 
ATOM     20 Cl2  UNK     1       1.348  39.867 237.324  1.00  0.00    -0.083 Cl
ENDBRANCH   3  13
TORSDOF 2
ENDMDL
MODEL 6
REMARK VINA RESULT:      -5.1      7.749      9.406
REMARK  2 active torsions:
REMARK  status: ('A' for Active; 'I' for Inactive)
REMARK    1  A    between atoms: N1_3  and  N2_5 
REMARK       I    between atoms: N3_7  and  C8_16 
REMARK       I    between atoms: N4_8  and  C8_16 
REMARK    2  A    between atoms: C1_9  and  C7_15 
ROOT
ATOM      1  N1  UNK     1      -0.329  38.459 234.296  1.00  0.00    -0.297 N 
ATOM      2  H1  UNK     1       0.465  38.498 233.656  1.00  0.00     0.186 HD
ATOM      3  C7  UNK     1      -0.282  37.967 235.497  1.00  0.00     0.122 C 
ENDROOT
BRANCH   1   4
ATOM      4  N2  UNK     1      -1.606  38.925 233.997  1.00  0.00    -0.133 N 
ATOM      5  C8  UNK     1      -1.893  38.804 232.728  1.00  0.00     0.684 C 
ATOM      6  N3  UNK     1      -3.069  39.171 232.114  1.00  0.00    -0.234 N 
ATOM      7  N4  UNK     1      -0.988  38.266 231.845  1.00  0.00    -0.234 N 
ATOM      8  H5  UNK     1      -3.210  39.041 231.119  1.00  0.00     0.174 HD
ATOM      9  H6  UNK     1      -3.830  39.581 232.645  1.00  0.00     0.174 HD
ATOM     10  H7  UNK     1      -0.075  37.951 232.154  1.00  0.00     0.174 HD
ATOM     11  H8  UNK     1      -1.204  38.170 230.858  1.00  0.00     0.174 HD
ATOM     12  H2  UNK     1      -2.244  39.317 234.690  1.00  0.00     0.205 HD
ENDBRANCH   1   4
BRANCH   3  13
ATOM     13  C1  UNK     1       0.942  37.409 236.069  1.00  0.00     0.024 A 
ATOM     14  C2  UNK     1       1.743  38.189 236.902  1.00  0.00     0.047 A 
ATOM     15 Cl1  UNK     1       1.330  39.821 237.290  1.00  0.00    -0.083 Cl
ATOM     16  C4  UNK     1       2.911  37.656 237.446  1.00  0.00     0.025 A 
ATOM     17  C6  UNK     1       3.279  36.342 237.158  1.00  0.00     0.003 A 
ATOM     18  C5  UNK     1       2.478  35.561 236.325  1.00  0.00     0.025 A 
ATOM     19  C3  UNK     1       1.309  36.094 235.781  1.00  0.00     0.047 A 
ATOM     20 Cl2  UNK     1       0.351  35.085 234.755  1.00  0.00    -0.083 Cl
ENDBRANCH   3  13
TORSDOF 2
ENDMDL
MODEL 7
REMARK VINA RESULT:      -5.0      8.794     10.494
REMARK  2 active torsions:
REMARK  status: ('A' for Active; 'I' for Inactive)
REMARK    1  A    between atoms: N1_3  and  N2_5 
REMARK       I    between atoms: N3_7  and  C8_16 
REMARK       I    between atoms: N4_8  and  C8_16 
REMARK    2  A    between atoms: C1_9  and  C7_15 
ROOT
ATOM      1  N1  UNK     1      -0.280  37.553 235.531  1.00  0.00    -0.297 N 
ATOM      2  H1  UNK     1       0.356  38.049 234.906  1.00  0.00     0.186 HD
ATOM      3  C7  UNK     1       0.009  37.202 236.748  1.00  0.00     0.122 C 
ENDROOT
BRANCH   1   4
ATOM      4  N2  UNK     1      -1.573  37.164 235.193  1.00  0.00    -0.133 N 
ATOM      5  C8  UNK     1      -2.086  37.915 234.254  1.00  0.00     0.684 C 
ATOM      6  N3  UNK     1      -3.341  37.793 233.701  1.00  0.00    -0.234 N 
ATOM      7  N4  UNK     1      -1.373  38.953 233.708  1.00  0.00    -0.234 N 
ATOM      8  H5  UNK     1      -3.662  38.421 232.972  1.00  0.00     0.174 HD
ATOM      9  H6  UNK     1      -3.980  37.067 234.007  1.00  0.00     0.174 HD
ATOM     10  H7  UNK     1      -0.431  39.166 234.018  1.00  0.00     0.174 HD
ATOM     11  H8  UNK     1      -1.765  39.540 232.979  1.00  0.00     0.174 HD
ATOM     12  H2  UNK     1      -2.064  36.383 235.628  1.00  0.00     0.205 HD
ENDBRANCH   1   4
BRANCH   3  13
ATOM     13  C1  UNK     1       1.305  37.488 237.361  1.00  0.00     0.024 A 
ATOM     14  C2  UNK     1       1.471  38.633 238.139  1.00  0.00     0.047 A 
ATOM     15 Cl1  UNK     1       0.174  39.742 238.411  1.00  0.00    -0.083 Cl
ATOM     16  C4  UNK     1       2.708  38.907 238.722  1.00  0.00     0.025 A 
ATOM     17  C6  UNK     1       3.780  38.036 238.526  1.00  0.00     0.003 A 
ATOM     18  C5  UNK     1       3.614  36.890 237.748  1.00  0.00     0.025 A 
ATOM     19  C3  UNK     1       2.376  36.616 237.165  1.00  0.00     0.047 A 
ATOM     20 Cl2  UNK     1       2.222  35.185 236.210  1.00  0.00    -0.083 Cl
ENDBRANCH   3  13
TORSDOF 2
ENDMDL
MODEL 8
REMARK VINA RESULT:      -4.9      1.606      1.709
REMARK  2 active torsions:
REMARK  status: ('A' for Active; 'I' for Inactive)
REMARK    1  A    between atoms: N1_3  and  N2_5 
REMARK       I    between atoms: N3_7  and  C8_16 
REMARK       I    between atoms: N4_8  and  C8_16 
REMARK    2  A    between atoms: C1_9  and  C7_15 
ROOT
ATOM      1  N1  UNK     1      -0.675  43.987 227.484  1.00  0.00    -0.297 N 
ATOM      2  H1  UNK     1      -1.362  44.675 227.792  1.00  0.00     0.186 HD
ATOM      3  C7  UNK     1      -0.954  42.761 227.162  1.00  0.00     0.122 C 
ENDROOT
BRANCH   1   4
ATOM      4  N2  UNK     1       0.688  44.239 227.353  1.00  0.00    -0.133 N 
ATOM      5  C8  UNK     1       1.233  44.611 228.481  1.00  0.00     0.684 C 
ATOM      6  N3  UNK     1       2.556  44.933 228.686  1.00  0.00    -0.234 N 
ATOM      7  N4  UNK     1       0.485  44.720 229.628  1.00  0.00    -0.234 N 
ATOM      8  H5  UNK     1       2.898  45.213 229.599  1.00  0.00     0.174 HD
ATOM      9  H6  UNK     1       3.227  44.896 227.927  1.00  0.00     0.174 HD
ATOM     10  H7  UNK     1      -0.509  44.516 229.630  1.00  0.00     0.174 HD
ATOM     11  H8  UNK     1       0.901  45.009 230.507  1.00  0.00     0.174 HD
ATOM     12  H2  UNK     1       1.203  44.144 226.477  1.00  0.00     0.205 HD
ENDBRANCH   1   4
BRANCH   3  13
ATOM     13  C1  UNK     1      -2.315  42.229 227.207  1.00  0.00     0.024 A 
ATOM     14  C2  UNK     1      -3.097  42.213 226.052  1.00  0.00     0.047 A 
ATOM     15 Cl1  UNK     1      -2.501  42.808 224.544  1.00  0.00    -0.083 Cl
ATOM     16  C4  UNK     1      -4.396  41.707 226.096  1.00  0.00     0.025 A 
ATOM     17  C6  UNK     1      -4.914  41.216 227.295  1.00  0.00     0.003 A 
ATOM     18  C5  UNK     1      -4.131  41.231 228.450  1.00  0.00     0.025 A 
ATOM     19  C3  UNK     1      -2.832  41.738 228.406  1.00  0.00     0.047 A 
ATOM     20 Cl2  UNK     1      -1.904  41.734 229.864  1.00  0.00    -0.083 Cl
ENDBRANCH   3  13
TORSDOF 2
ENDMDL
MODEL 9
REMARK VINA RESULT:      -4.9      8.796     10.547
REMARK  2 active torsions:
REMARK  status: ('A' for Active; 'I' for Inactive)
REMARK    1  A    between atoms: N1_3  and  N2_5 
REMARK       I    between atoms: N3_7  and  C8_16 
REMARK       I    between atoms: N4_8  and  C8_16 
REMARK    2  A    between atoms: C1_9  and  C7_15 
ROOT
ATOM      1  N1  UNK     1      -0.194  37.515 235.470  1.00  0.00    -0.297 N 
ATOM      2  H1  UNK     1       0.451  38.018 234.861  1.00  0.00     0.186 HD
ATOM      3  C7  UNK     1       0.074  37.155 236.689  1.00  0.00     0.122 C 
ENDROOT
BRANCH   1   4
ATOM      4  N2  UNK     1      -1.480  37.123 235.105  1.00  0.00    -0.133 N 
ATOM      5  C8  UNK     1      -1.992  37.900 234.187  1.00  0.00     0.684 C 
ATOM      6  N3  UNK     1      -3.239  37.783 233.617  1.00  0.00    -0.234 N 
ATOM      7  N4  UNK     1      -1.285  38.965 233.685  1.00  0.00    -0.234 N 
ATOM      8  H5  UNK     1      -3.561  38.432 232.907  1.00  0.00     0.174 HD
ATOM      9  H6  UNK     1      -3.873  37.040 233.892  1.00  0.00     0.174 HD
ATOM     10  H7  UNK     1      -0.349  39.177 234.012  1.00  0.00     0.174 HD
ATOM     11  H8  UNK     1      -1.677  39.573 232.973  1.00  0.00     0.174 HD
ATOM     12  H2  UNK     1      -1.965  36.322 235.508  1.00  0.00     0.205 HD
ENDBRANCH   1   4
BRANCH   3  13
ATOM     13  C1  UNK     1       1.357  37.442 237.327  1.00  0.00     0.024 A 
ATOM     14  C2  UNK     1       2.425  36.558 237.176  1.00  0.00     0.047 A 
ATOM     15 Cl1  UNK     1       2.283  35.113 236.241  1.00  0.00    -0.083 Cl
ATOM     16  C4  UNK     1       3.648  36.832 237.788  1.00  0.00     0.025 A 
ATOM     17  C6  UNK     1       3.804  37.989 238.550  1.00  0.00     0.003 A 
ATOM     18  C5  UNK     1       2.735  38.873 238.702  1.00  0.00     0.025 A 
ATOM     19  C3  UNK     1       1.512  38.600 238.090  1.00  0.00     0.047 A 
ATOM     20 Cl2  UNK     1       0.220  39.726 238.308  1.00  0.00    -0.083 Cl
ENDBRANCH   3  13
TORSDOF 2
ENDMDL
