MODEL 1
REMARK VINA RESULT:      -7.2      0.000      0.000
REMARK  3 active torsions:
REMARK  status: ('A' for Active; 'I' for Inactive)
REMARK       I    between atoms: N3_5  and  C9_14 
REMARK    1  A    between atoms: C1_6  and  C4_9 
REMARK    2  A    between atoms: C2_7  and  C5_10 
REMARK    3  A    between atoms: C4_9  and  C9_14 
ROOT
ATOM      1  N1  UNK     1       0.739  43.269 228.620  1.00  0.00    -0.309 N 
ATOM      2  N2  UNK     1      -0.585  44.431 227.240  1.00  0.00    -0.340 N 
ATOM      3  H2  UNK     1      -0.993  45.183 226.686  1.00  0.00     0.167 HD
ATOM      4  C1  UNK     1      -0.222  42.396 228.177  1.00  0.00     0.054 A 
ATOM      5  C2  UNK     1      -1.020  43.133 227.333  1.00  0.00     0.068 A 
ATOM      6  C3  UNK     1       0.475  44.497 228.020  1.00  0.00     0.112 A 
ATOM      7  C6  UNK     1       1.799  43.049 229.494  1.00  0.00     0.105 A 
ATOM      8  C7  UNK     1       2.631  44.064 229.793  1.00  0.00    -0.046 A 
ATOM      9  C8  UNK     1       1.354  45.573 228.336  1.00  0.00     0.050 A 
ATOM     10  C10 UNK     1       2.383  45.369 229.180  1.00  0.00     0.012 A 
ATOM     11  C13 UNK     1       3.799  43.938 230.718  1.00  0.00     0.049 C 
ENDROOT
BRANCH   5  12
ATOM     12  C5  UNK     1      -2.163  42.632 226.634  1.00  0.00    -0.007 A 
ATOM     13  C11 UNK     1      -3.255  42.126 227.344  1.00  0.00     0.014 A 
ATOM     14  C15 UNK     1      -4.370  41.637 226.663  1.00  0.00     0.007 A 
ATOM     15  C14 UNK     1      -4.397  41.654 225.268  1.00  0.00    -0.062 A 
ATOM     16  C16 UNK     1      -3.309  42.158 224.556  1.00  0.00     0.007 A 
ATOM     17  C19 UNK     1      -5.589  41.132 224.540  1.00  0.00     0.048 C 
ATOM     18  C12 UNK     1      -2.195  42.646 225.237  1.00  0.00     0.014 A 
ENDBRANCH   5  12
BRANCH   4  19
ATOM     19  C4  UNK     1      -0.285  40.980 228.591  1.00  0.00     0.163 C 
BRANCH  19  20
ATOM     20  C9  UNK     1      -1.053  40.794 229.908  1.00  0.00     0.224 C 
ATOM     21  O1  UNK     1      -1.497  41.777 230.507  1.00  0.00    -0.273 OA
ATOM     22  N3  UNK     1      -1.212  39.482 230.369  1.00  0.00    -0.361 N 
ATOM     23  C17 UNK     1      -1.922  39.167 231.607  1.00  0.00     0.152 C 
ATOM     24  C18 UNK     1      -0.682  38.330 229.650  1.00  0.00     0.152 C 
ENDBRANCH  19  20
ENDBRANCH   4  19
TORSDOF 3
ENDMDL
MODEL 2
REMARK VINA RESULT:      -7.0      8.004     10.138
REMARK  3 active torsions:
REMARK  status: ('A' for Active; 'I' for Inactive)
REMARK       I    between atoms: N3_5  and  C9_14 
REMARK    1  A    between atoms: C1_6  and  C4_9 
REMARK    2  A    between atoms: C2_7  and  C5_10 
REMARK    3  A    between atoms: C4_9  and  C9_14 
ROOT
ATOM      1  N1  UNK     1       1.822  37.431 236.864  1.00  0.00    -0.309 N 
ATOM      2  N2  UNK     1       0.643  38.321 235.184  1.00  0.00    -0.340 N 
ATOM      3  H2  UNK     1       0.092  38.961 234.612  1.00  0.00     0.167 HD
ATOM      4  C1  UNK     1       1.782  36.483 235.873  1.00  0.00     0.054 A 
ATOM      5  C2  UNK     1       1.054  37.053 234.855  1.00  0.00     0.068 A 
ATOM      6  C3  UNK     1       1.114  38.533 236.395  1.00  0.00     0.112 A 
ATOM      7  C6  UNK     1       2.429  37.377 238.115  1.00  0.00     0.105 A 
ATOM      8  C7  UNK     1       2.341  38.439 238.938  1.00  0.00    -0.046 A 
ATOM      9  C8  UNK     1       1.019  39.657 237.266  1.00  0.00     0.050 A 
ATOM     10  C10 UNK     1       1.604  39.615 238.478  1.00  0.00     0.012 A 
ATOM     11  C13 UNK     1       2.954  38.488 240.301  1.00  0.00     0.049 C 
ENDROOT
BRANCH   5  12
ATOM     12  C5  UNK     1       0.750  36.424 233.607  1.00  0.00    -0.007 A 
ATOM     13  C11 UNK     1       1.166  37.006 232.407  1.00  0.00     0.014 A 
ATOM     14  C15 UNK     1       0.870  36.394 231.189  1.00  0.00     0.007 A 
ATOM     15  C14 UNK     1       0.157  35.195 231.167  1.00  0.00    -0.062 A 
ATOM     16  C16 UNK     1      -0.260  34.610 232.363  1.00  0.00     0.007 A 
ATOM     17  C19 UNK     1      -0.160  34.540 229.866  1.00  0.00     0.048 C 
ATOM     18  C12 UNK     1       0.035  35.223 233.580  1.00  0.00     0.014 A 
ENDBRANCH   5  12
BRANCH   4  19
ATOM     19  C4  UNK     1       2.425  35.159 235.990  1.00  0.00     0.163 C 
BRANCH  19  20
ATOM     20  C9  UNK     1       1.503  34.122 236.649  1.00  0.00     0.224 C 
ATOM     21  O1  UNK     1       0.402  34.466 237.087  1.00  0.00    -0.273 OA
ATOM     22  N3  UNK     1       1.976  32.806 236.717  1.00  0.00    -0.361 N 
ATOM     23  C17 UNK     1       1.199  31.724 237.318  1.00  0.00     0.152 C 
ATOM     24  C18 UNK     1       3.279  32.414 236.194  1.00  0.00     0.152 C 
ENDBRANCH  19  20
ENDBRANCH   4  19
TORSDOF 3
ENDMDL
MODEL 3
REMARK VINA RESULT:      -6.9      7.971     11.671
REMARK  3 active torsions:
REMARK  status: ('A' for Active; 'I' for Inactive)
REMARK       I    between atoms: N3_5  and  C9_14 
REMARK    1  A    between atoms: C1_6  and  C4_9 
REMARK    2  A    between atoms: C2_7  and  C5_10 
REMARK    3  A    between atoms: C4_9  and  C9_14 
ROOT
ATOM      1  N1  UNK     1       0.671  35.605 233.810  1.00  0.00    -0.309 N 
ATOM      2  N2  UNK     1       1.645  37.588 234.161  1.00  0.00    -0.340 N 
ATOM      3  H2  UNK     1       2.040  38.518 234.021  1.00  0.00     0.167 HD
ATOM      4  C1  UNK     1       0.963  35.663 235.149  1.00  0.00     0.054 A 
ATOM      5  C2  UNK     1       1.559  36.888 235.338  1.00  0.00     0.068 A 
ATOM      6  C3  UNK     1       1.106  36.803 233.251  1.00  0.00     0.112 A 
ATOM      7  C6  UNK     1       0.063  34.588 233.080  1.00  0.00     0.105 A 
ATOM      8  C7  UNK     1      -0.127  34.747 231.757  1.00  0.00    -0.046 A 
ATOM      9  C8  UNK     1       0.906  36.973 231.851  1.00  0.00     0.050 A 
ATOM     10  C10 UNK     1       0.317  35.994 231.137  1.00  0.00     0.012 A 
ATOM     11  C13 UNK     1      -0.770  33.721 230.880  1.00  0.00     0.049 C 
ENDROOT
BRANCH   5  12
ATOM     12  C5  UNK     1       2.037  37.387 236.591  1.00  0.00    -0.007 A 
ATOM     13  C11 UNK     1       3.342  37.107 237.006  1.00  0.00     0.014 A 
ATOM     14  C15 UNK     1       3.809  37.594 238.228  1.00  0.00     0.007 A 
ATOM     15  C14 UNK     1       2.973  38.363 239.036  1.00  0.00    -0.062 A 
ATOM     16  C16 UNK     1       1.671  38.646 238.625  1.00  0.00     0.007 A 
ATOM     17  C19 UNK     1       3.472  38.884 240.342  1.00  0.00     0.048 C 
ATOM     18  C12 UNK     1       1.204  38.159 237.404  1.00  0.00     0.014 A 
ENDBRANCH   5  12
BRANCH   4  19
ATOM     19  C4  UNK     1       0.654  34.572 236.095  1.00  0.00     0.163 C 
BRANCH  19  20
ATOM     20  C9  UNK     1       1.913  33.807 236.530  1.00  0.00     0.224 C 
ATOM     21  O1  UNK     1       2.595  33.213 235.691  1.00  0.00    -0.273 OA
ATOM     22  N3  UNK     1       2.226  33.827 237.895  1.00  0.00    -0.361 N 
ATOM     23  C17 UNK     1       3.396  33.141 238.441  1.00  0.00     0.152 C 
ATOM     24  C18 UNK     1       1.411  34.534 238.875  1.00  0.00     0.152 C 
ENDBRANCH  19  20
ENDBRANCH   4  19
TORSDOF 3
ENDMDL
MODEL 4
REMARK VINA RESULT:      -6.8      7.532      9.514
REMARK  3 active torsions:
REMARK  status: ('A' for Active; 'I' for Inactive)
REMARK       I    between atoms: N3_5  and  C9_14 
REMARK    1  A    between atoms: C1_6  and  C4_9 
REMARK    2  A    between atoms: C2_7  and  C5_10 
REMARK    3  A    between atoms: C4_9  and  C9_14 
ROOT
ATOM      1  N1  UNK     1       1.615  37.264 236.661  1.00  0.00    -0.309 N 
ATOM      2  N2  UNK     1       0.682  38.600 235.129  1.00  0.00    -0.340 N 
ATOM      3  H2  UNK     1       0.306  39.417 234.647  1.00  0.00     0.167 HD
ATOM      4  C1  UNK     1       1.319  36.470 235.582  1.00  0.00     0.054 A 
ATOM      5  C2  UNK     1       0.748  37.313 234.657  1.00  0.00     0.068 A 
ATOM      6  C3  UNK     1       1.208  38.554 236.335  1.00  0.00     0.112 A 
ATOM      7  C6  UNK     1       2.204  36.924 237.875  1.00  0.00     0.105 A 
ATOM      8  C7  UNK     1       2.403  37.877 238.804  1.00  0.00    -0.046 A 
ATOM      9  C8  UNK     1       1.417  39.565 237.317  1.00  0.00     0.050 A 
ATOM     10  C10 UNK     1       1.988  39.245 238.495  1.00  0.00     0.012 A 
ATOM     11  C13 UNK     1       3.027  37.622 240.138  1.00  0.00     0.049 C 
ENDROOT
BRANCH   5  12
ATOM     12  C5  UNK     1       0.275  36.920 233.366  1.00  0.00    -0.007 A 
ATOM     13  C11 UNK     1       1.157  36.860 232.283  1.00  0.00     0.014 A 
ATOM     14  C15 UNK     1       0.697  36.478 231.023  1.00  0.00     0.007 A 
ATOM     15  C14 UNK     1      -0.647  36.152 230.842  1.00  0.00    -0.062 A 
ATOM     16  C16 UNK     1      -1.531  36.209 231.920  1.00  0.00     0.007 A 
ATOM     17  C19 UNK     1      -1.139  35.742 229.495  1.00  0.00     0.048 C 
ATOM     18  C12 UNK     1      -1.070  36.592 233.179  1.00  0.00     0.014 A 
ENDBRANCH   5  12
BRANCH   4  19
ATOM     19  C4  UNK     1       1.601  35.021 235.539  1.00  0.00     0.163 C 
BRANCH  19  20
ATOM     20  C9  UNK     1       0.360  34.178 235.869  1.00  0.00     0.224 C 
ATOM     21  O1  UNK     1      -0.165  34.264 236.982  1.00  0.00    -0.273 OA
ATOM     22  N3  UNK     1      -0.120  33.335 234.860  1.00  0.00    -0.361 N 
ATOM     23  C17 UNK     1      -1.291  32.481 235.043  1.00  0.00     0.152 C 
ATOM     24  C18 UNK     1       0.512  33.245 233.549  1.00  0.00     0.152 C 
ENDBRANCH  19  20
ENDBRANCH   4  19
TORSDOF 3
ENDMDL
MODEL 5
REMARK VINA RESULT:      -6.8      1.458      1.812
REMARK  3 active torsions:
REMARK  status: ('A' for Active; 'I' for Inactive)
REMARK       I    between atoms: N3_5  and  C9_14 
REMARK    1  A    between atoms: C1_6  and  C4_9 
REMARK    2  A    between atoms: C2_7  and  C5_10 
REMARK    3  A    between atoms: C4_9  and  C9_14 
ROOT
ATOM      1  N1  UNK     1      -0.175  43.330 228.671  1.00  0.00    -0.309 N 
ATOM      2  N2  UNK     1      -0.656  43.771 226.531  1.00  0.00    -0.340 N 
ATOM      3  H2  UNK     1      -0.600  44.102 225.568  1.00  0.00     0.167 HD
ATOM      4  C1  UNK     1      -1.418  42.799 228.435  1.00  0.00     0.054 A 
ATOM      5  C2  UNK     1      -1.689  43.083 227.117  1.00  0.00     0.068 A 
ATOM      6  C3  UNK     1       0.247  43.911 227.479  1.00  0.00     0.112 A 
ATOM      7  C6  UNK     1       0.580  43.329 229.840  1.00  0.00     0.105 A 
ATOM      8  C7  UNK     1       1.791  43.916 229.845  1.00  0.00    -0.046 A 
ATOM      9  C8  UNK     1       1.529  44.534 227.483  1.00  0.00     0.050 A 
ATOM     10  C10 UNK     1       2.267  44.537 228.609  1.00  0.00     0.012 A 
ATOM     11  C13 UNK     1       2.684  43.973 231.043  1.00  0.00     0.049 C 
ENDROOT
BRANCH   5  12
ATOM     12  C5  UNK     1      -2.888  42.720 226.426  1.00  0.00    -0.007 A 
ATOM     13  C11 UNK     1      -2.959  41.509 225.732  1.00  0.00     0.014 A 
ATOM     14  C15 UNK     1      -4.128  41.154 225.058  1.00  0.00     0.007 A 
ATOM     15  C14 UNK     1      -5.230  42.009 225.076  1.00  0.00    -0.062 A 
ATOM     16  C16 UNK     1      -5.163  43.218 225.768  1.00  0.00     0.007 A 
ATOM     17  C19 UNK     1      -6.479  41.630 224.356  1.00  0.00     0.048 C 
ATOM     18  C12 UNK     1      -3.995  43.573 226.441  1.00  0.00     0.014 A 
ENDBRANCH   5  12
BRANCH   4  19
ATOM     19  C4  UNK     1      -2.207  42.091 229.464  1.00  0.00     0.163 C 
BRANCH  19  20
ATOM     20  C9  UNK     1      -2.012  40.569 229.397  1.00  0.00     0.224 C 
ATOM     21  O1  UNK     1      -0.896  40.081 229.591  1.00  0.00    -0.273 OA
ATOM     22  N3  UNK     1      -3.145  39.798 229.112  1.00  0.00    -0.361 N 
ATOM     23  C17 UNK     1      -3.098  38.340 229.020  1.00  0.00     0.152 C 
ATOM     24  C18 UNK     1      -4.459  40.389 228.886  1.00  0.00     0.152 C 
ENDBRANCH  19  20
ENDBRANCH   4  19
TORSDOF 3
ENDMDL
MODEL 6
REMARK VINA RESULT:      -6.7      7.805     11.399
REMARK  3 active torsions:
REMARK  status: ('A' for Active; 'I' for Inactive)
REMARK       I    between atoms: N3_5  and  C9_14 
REMARK    1  A    between atoms: C1_6  and  C4_9 
REMARK    2  A    between atoms: C2_7  and  C5_10 
REMARK    3  A    between atoms: C4_9  and  C9_14 
ROOT
ATOM      1  N1  UNK     1       0.698  35.607 233.731  1.00  0.00    -0.309 N 
ATOM      2  N2  UNK     1       1.579  37.625 234.125  1.00  0.00    -0.340 N 
ATOM      3  H2  UNK     1       1.927  38.576 234.006  1.00  0.00     0.167 HD
ATOM      4  C1  UNK     1       1.005  35.643 235.067  1.00  0.00     0.054 A 
ATOM      5  C2  UNK     1       1.544  36.890 235.283  1.00  0.00     0.068 A 
ATOM      6  C3  UNK     1       1.066  36.840 233.200  1.00  0.00     0.112 A 
ATOM      7  C6  UNK     1       0.129  34.582 232.981  1.00  0.00     0.105 A 
ATOM      8  C7  UNK     1      -0.088  34.767 231.666  1.00  0.00    -0.046 A 
ATOM      9  C8  UNK     1       0.838  37.038 231.808  1.00  0.00     0.050 A 
ATOM     10  C10 UNK     1       0.288  36.051 231.074  1.00  0.00     0.012 A 
ATOM     11  C13 UNK     1      -0.692  33.736 230.768  1.00  0.00     0.049 C 
ENDROOT
BRANCH   5  12
ATOM     12  C5  UNK     1       2.015  37.378 236.542  1.00  0.00    -0.007 A 
ATOM     13  C11 UNK     1       1.232  38.259 237.292  1.00  0.00     0.014 A 
ATOM     14  C15 UNK     1       1.691  38.735 238.520  1.00  0.00     0.007 A 
ATOM     15  C14 UNK     1       2.934  38.331 239.004  1.00  0.00    -0.062 A 
ATOM     16  C16 UNK     1       3.720  37.450 238.259  1.00  0.00     0.007 A 
ATOM     17  C19 UNK     1       3.425  38.839 240.317  1.00  0.00     0.048 C 
ATOM     18  C12 UNK     1       3.261  36.975 237.031  1.00  0.00     0.014 A 
ENDBRANCH   5  12
BRANCH   4  19
ATOM     19  C4  UNK     1       0.762  34.512 235.987  1.00  0.00     0.163 C 
BRANCH  19  20
ATOM     20  C9  UNK     1      -0.601  34.617 236.686  1.00  0.00     0.224 C 
ATOM     21  O1  UNK     1      -1.640  34.545 236.026  1.00  0.00    -0.273 OA
ATOM     22  N3  UNK     1      -0.588  34.792 238.075  1.00  0.00    -0.361 N 
ATOM     23  C17 UNK     1      -1.815  34.906 238.862  1.00  0.00     0.152 C 
ATOM     24  C18 UNK     1       0.648  34.874 238.843  1.00  0.00     0.152 C 
ENDBRANCH  19  20
ENDBRANCH   4  19
TORSDOF 3
ENDMDL
MODEL 7
REMARK VINA RESULT:      -6.6      6.627      9.551
REMARK  3 active torsions:
REMARK  status: ('A' for Active; 'I' for Inactive)
REMARK       I    between atoms: N3_5  and  C9_14 
REMARK    1  A    between atoms: C1_6  and  C4_9 
REMARK    2  A    between atoms: C2_7  and  C5_10 
REMARK    3  A    between atoms: C4_9  and  C9_14 
ROOT
ATOM      1  N1  UNK     1       1.729  36.593 236.840  1.00  0.00    -0.309 N 
ATOM      2  N2  UNK     1       2.205  38.115 235.272  1.00  0.00    -0.340 N 
ATOM      3  H2  UNK     1       2.628  38.894 234.767  1.00  0.00     0.167 HD
ATOM      4  C1  UNK     1       0.876  36.352 235.793  1.00  0.00     0.054 A 
ATOM      5  C2  UNK     1       1.189  37.298 234.845  1.00  0.00     0.068 A 
ATOM      6  C3  UNK     1       2.520  37.678 236.474  1.00  0.00     0.112 A 
ATOM      7  C6  UNK     1       1.843  35.930 238.058  1.00  0.00     0.105 A 
ATOM      8  C7  UNK     1       2.762  36.342 238.951  1.00  0.00    -0.046 A 
ATOM      9  C8  UNK     1       3.493  38.115 237.418  1.00  0.00     0.050 A 
ATOM     10  C10 UNK     1       3.611  37.479 238.600  1.00  0.00     0.012 A 
ATOM     11  C13 UNK     1       2.969  35.703 240.287  1.00  0.00     0.049 C 
ENDROOT
BRANCH   5  12
ATOM     12  C5  UNK     1       0.549  37.434 233.573  1.00  0.00    -0.007 A 
ATOM     13  C11 UNK     1       1.091  36.814 232.444  1.00  0.00     0.014 A 
ATOM     14  C15 UNK     1       0.468  36.946 231.203  1.00  0.00     0.007 A 
ATOM     15  C14 UNK     1      -0.701  37.697 231.087  1.00  0.00    -0.062 A 
ATOM     16  C16 UNK     1      -1.247  38.317 232.212  1.00  0.00     0.007 A 
ATOM     17  C19 UNK     1      -1.368  37.837 229.761  1.00  0.00     0.048 C 
ATOM     18  C12 UNK     1      -0.623  38.185 233.452  1.00  0.00     0.014 A 
ENDBRANCH   5  12
BRANCH   4  19
ATOM     19  C4  UNK     1      -0.129  35.269 235.796  1.00  0.00     0.163 C 
BRANCH  19  20
ATOM     20  C9  UNK     1      -1.522  35.774 236.200  1.00  0.00     0.224 C 
ATOM     21  O1  UNK     1      -1.692  36.301 237.303  1.00  0.00    -0.273 OA
ATOM     22  N3  UNK     1      -2.553  35.603 235.267  1.00  0.00    -0.361 N 
ATOM     23  C17 UNK     1      -3.924  36.039 235.526  1.00  0.00     0.152 C 
ATOM     24  C18 UNK     1      -2.337  34.979 233.968  1.00  0.00     0.152 C 
ENDBRANCH  19  20
ENDBRANCH   4  19
TORSDOF 3
ENDMDL
MODEL 8
REMARK VINA RESULT:      -6.4      7.313     11.168
REMARK  3 active torsions:
REMARK  status: ('A' for Active; 'I' for Inactive)
REMARK       I    between atoms: N3_5  and  C9_14 
REMARK    1  A    between atoms: C1_6  and  C4_9 
REMARK    2  A    between atoms: C2_7  and  C5_10 
REMARK    3  A    between atoms: C4_9  and  C9_14 
ROOT
ATOM      1  N1  UNK     1      -1.862  37.154 234.689  1.00  0.00    -0.309 N 
ATOM      2  N2  UNK     1      -0.314  38.766 234.591  1.00  0.00    -0.340 N 
ATOM      3  H2  UNK     1       0.238  39.569 234.291  1.00  0.00     0.167 HD
ATOM      4  C1  UNK     1      -1.065  36.995 235.794  1.00  0.00     0.054 A 
ATOM      5  C2  UNK     1      -0.125  37.996 235.710  1.00  0.00     0.068 A 
ATOM      6  C3  UNK     1      -1.363  38.247 233.987  1.00  0.00     0.112 A 
ATOM      7  C6  UNK     1      -2.966  36.412 234.280  1.00  0.00     0.105 A 
ATOM      8  C7  UNK     1      -3.607  36.750 233.146  1.00  0.00    -0.046 A 
ATOM      9  C8  UNK     1      -2.040  38.606 232.785  1.00  0.00     0.050 A 
ATOM     10  C10 UNK     1      -3.110  37.894 232.383  1.00  0.00     0.012 A 
ATOM     11  C13 UNK     1      -4.801  36.023 232.616  1.00  0.00     0.049 C 
ENDROOT
BRANCH   5  12
ATOM     12  C5  UNK     1       0.925  38.221 236.655  1.00  0.00    -0.007 A 
ATOM     13  C11 UNK     1       0.669  38.925 237.835  1.00  0.00     0.014 A 
ATOM     14  C15 UNK     1       1.693  39.146 238.757  1.00  0.00     0.007 A 
ATOM     15  C14 UNK     1       2.975  38.662 238.503  1.00  0.00    -0.062 A 
ATOM     16  C16 UNK     1       3.235  37.958 237.327  1.00  0.00     0.007 A 
ATOM     17  C19 UNK     1       4.069  38.897 239.489  1.00  0.00     0.048 C 
ATOM     18  C12 UNK     1       2.212  37.738 236.405  1.00  0.00     0.014 A 
ENDBRANCH   5  12
BRANCH   4  19
ATOM     19  C4  UNK     1      -1.272  35.932 236.798  1.00  0.00     0.163 C 
BRANCH  19  20
ATOM     20  C9  UNK     1      -0.264  34.783 236.642  1.00  0.00     0.224 C 
ATOM     21  O1  UNK     1      -0.243  34.118 235.603  1.00  0.00    -0.273 OA
ATOM     22  N3  UNK     1       0.600  34.548 237.718  1.00  0.00    -0.361 N 
ATOM     23  C17 UNK     1       1.605  33.487 237.699  1.00  0.00     0.152 C 
ATOM     24  C18 UNK     1       0.564  35.344 238.940  1.00  0.00     0.152 C 
ENDBRANCH  19  20
ENDBRANCH   4  19
TORSDOF 3
ENDMDL
MODEL 9
REMARK VINA RESULT:      -6.4      6.775      9.917
REMARK  3 active torsions:
REMARK  status: ('A' for Active; 'I' for Inactive)
REMARK       I    between atoms: N3_5  and  C9_14 
REMARK    1  A    between atoms: C1_6  and  C4_9 
REMARK    2  A    between atoms: C2_7  and  C5_10 
REMARK    3  A    between atoms: C4_9  and  C9_14 
ROOT
ATOM      1  N1  UNK     1       1.716  36.541 236.808  1.00  0.00    -0.309 N 
ATOM      2  N2  UNK     1       2.206  38.058 235.238  1.00  0.00    -0.340 N 
ATOM      3  H2  UNK     1       2.634  38.833 234.733  1.00  0.00     0.167 HD
ATOM      4  C1  UNK     1       0.865  36.304 235.759  1.00  0.00     0.054 A 
ATOM      5  C2  UNK     1       1.185  37.246 234.811  1.00  0.00     0.068 A 
ATOM      6  C3  UNK     1       2.515  37.620 236.442  1.00  0.00     0.112 A 
ATOM      7  C6  UNK     1       1.824  35.880 238.028  1.00  0.00     0.105 A 
ATOM      8  C7  UNK     1       2.744  36.287 238.922  1.00  0.00    -0.046 A 
ATOM      9  C8  UNK     1       3.489  38.054 237.387  1.00  0.00     0.050 A 
ATOM     10  C10 UNK     1       3.600  37.419 238.570  1.00  0.00     0.012 A 
ATOM     11  C13 UNK     1       2.944  35.650 240.260  1.00  0.00     0.049 C 
ENDROOT
BRANCH   5  12
ATOM     12  C5  UNK     1       0.549  37.384 233.537  1.00  0.00    -0.007 A 
ATOM     13  C11 UNK     1      -0.648  38.097 233.423  1.00  0.00     0.014 A 
ATOM     14  C15 UNK     1      -1.269  38.230 232.181  1.00  0.00     0.007 A 
ATOM     15  C14 UNK     1      -0.695  37.653 231.049  1.00  0.00    -0.062 A 
ATOM     16  C16 UNK     1       0.500  36.941 231.158  1.00  0.00     0.007 A 
ATOM     17  C19 UNK     1      -1.359  37.797 229.721  1.00  0.00     0.048 C 
ATOM     18  C12 UNK     1       1.120  36.807 232.400  1.00  0.00     0.014 A 
ENDBRANCH   5  12
BRANCH   4  19
ATOM     19  C4  UNK     1      -0.147  35.227 235.763  1.00  0.00     0.163 C 
BRANCH  19  20
ATOM     20  C9  UNK     1       0.433  33.884 235.298  1.00  0.00     0.224 C 
ATOM     21  O1  UNK     1       0.965  33.793 234.188  1.00  0.00    -0.273 OA
ATOM     22  N3  UNK     1       0.324  32.806 236.185  1.00  0.00    -0.361 N 
ATOM     23  C17 UNK     1       0.835  31.474 235.866  1.00  0.00     0.152 C 
ATOM     24  C18 UNK     1      -0.307  32.929 237.493  1.00  0.00     0.152 C 
ENDBRANCH  19  20
ENDBRANCH   4  19
TORSDOF 3
ENDMDL
