MODEL 1
REMARK VINA RESULT:      -6.3      0.000      0.000
REMARK  5 active torsions:
REMARK  status: ('A' for Active; 'I' for Inactive)
REMARK    1  A    between atoms: O1_1  and  C14_19 
REMARK    2  A    between atoms: N1_2  and  C1_6 
REMARK    3  A    between atoms: N1_2  and  C5_10 
REMARK    4  A    between atoms: N1_2  and  C6_11 
REMARK    5  A    between atoms: C1_6  and  C2_7 
ROOT
ATOM      1  N1  UNK     1       0.519  36.138 235.422  1.00  0.00    -0.340 N 
ENDROOT
BRANCH   1   2
ATOM      2  C1  UNK     1      -0.580  36.874 235.982  1.00  0.00     0.205 C 
BRANCH   2   3
ATOM      3  C2  UNK     1      -0.012  38.031 236.736  1.00  0.00     0.091 A 
ATOM      4  N2  UNK     1      -0.139  38.121 238.088  1.00  0.00    -0.377 N 
ATOM      5  C3  UNK     1       0.524  39.297 238.567  1.00  0.00     0.140 A 
ATOM      6  H7  UNK     1      -0.602  37.453 238.691  1.00  0.00     0.160 HD
ATOM      7  C4  UNK     1       1.026  39.913 237.253  1.00  0.00     0.140 A 
ATOM      8  N3  UNK     1       0.649  38.991 236.138  1.00  0.00    -0.377 N 
ATOM      9  H3  UNK     1       0.857  39.086 235.144  1.00  0.00     0.160 HD
ENDBRANCH   2   3
ENDBRANCH   1   2
BRANCH   1  10
ATOM     10  C5  UNK     1       0.537  36.020 233.994  1.00  0.00     0.035 A 
ATOM     11  C7  UNK     1       1.069  37.051 233.238  1.00  0.00     0.030 A 
ATOM     12  C12 UNK     1       1.087  36.935 231.848  1.00  0.00     0.009 A 
ATOM     13  C11 UNK     1       0.573  35.792 231.236  1.00  0.00    -0.062 A 
ATOM     14  C13 UNK     1       0.040  34.764 232.014  1.00  0.00     0.009 A 
ATOM     15  C17 UNK     1       0.592  35.670 229.750  1.00  0.00     0.048 C 
ATOM     16  C8  UNK     1       0.023  34.879 233.404  1.00  0.00     0.030 A 
ENDBRANCH   1  10
BRANCH   1  17
ATOM     17  C6  UNK     1       1.366  35.386 236.300  1.00  0.00     0.037 A 
ATOM     18  C9  UNK     1       0.894  34.204 236.844  1.00  0.00     0.066 A 
ATOM     19  C14 UNK     1       1.719  33.472 237.698  1.00  0.00     0.067 A 
ATOM     20  C16 UNK     1       3.002  33.934 237.993  1.00  0.00     0.036 A 
ATOM     21  C15 UNK     1       3.460  35.127 237.435  1.00  0.00     0.005 A 
ATOM     22  C10 UNK     1       2.635  35.859 236.581  1.00  0.00     0.030 A 
BRANCH  19  23
ATOM     23  O1  UNK     1       1.272  32.308 238.242  1.00  0.00    -0.361 OA
ATOM     24  H19 UNK     1       0.300  32.307 238.228  1.00  0.00     0.217 HD
ENDBRANCH  19  23
ENDBRANCH   1  17
TORSDOF 5
ENDMDL
MODEL 2
REMARK VINA RESULT:      -6.2      2.228      3.813
REMARK  5 active torsions:
REMARK  status: ('A' for Active; 'I' for Inactive)
REMARK    1  A    between atoms: O1_1  and  C14_19 
REMARK    2  A    between atoms: N1_2  and  C1_6 
REMARK    3  A    between atoms: N1_2  and  C5_10 
REMARK    4  A    between atoms: N1_2  and  C6_11 
REMARK    5  A    between atoms: C1_6  and  C2_7 
ROOT
ATOM      1  N1  UNK     1       0.640  36.116 235.931  1.00  0.00    -0.340 N 
ENDROOT
BRANCH   1   2
ATOM      2  C1  UNK     1       0.212  34.913 236.587  1.00  0.00     0.205 C 
BRANCH   2   3
ATOM      3  C2  UNK     1       1.402  34.320 237.267  1.00  0.00     0.091 A 
ATOM      4  N2  UNK     1       1.533  34.361 238.621  1.00  0.00    -0.377 N 
ATOM      5  C3  UNK     1       2.735  33.692 239.019  1.00  0.00     0.140 A 
ATOM      6  H7  UNK     1       0.876  34.771 239.273  1.00  0.00     0.160 HD
ATOM      7  C4  UNK     1       3.319  33.289 237.657  1.00  0.00     0.140 A 
ATOM      8  N3  UNK     1       2.354  33.720 236.598  1.00  0.00    -0.377 N 
ATOM      9  H3  UNK     1       2.422  33.578 235.590  1.00  0.00     0.160 HD
ENDBRANCH   2   3
ENDBRANCH   1   2
BRANCH   1  10
ATOM     10  C5  UNK     1       0.672  36.077 234.499  1.00  0.00     0.035 A 
ATOM     11  C7  UNK     1       1.097  37.195 233.802  1.00  0.00     0.030 A 
ATOM     12  C12 UNK     1       1.128  37.156 232.408  1.00  0.00     0.009 A 
ATOM     13  C11 UNK     1       0.732  36.002 231.732  1.00  0.00    -0.062 A 
ATOM     14  C13 UNK     1       0.306  34.884 232.452  1.00  0.00     0.009 A 
ATOM     15  C17 UNK     1       0.765  35.961 230.242  1.00  0.00     0.048 C 
ATOM     16  C8  UNK     1       0.276  34.923 233.846  1.00  0.00     0.030 A 
ENDBRANCH   1  10
BRANCH   1  17
ATOM     17  C6  UNK     1       1.220  37.165 236.718  1.00  0.00     0.037 A 
ATOM     18  C9  UNK     1       0.393  37.965 237.487  1.00  0.00     0.066 A 
ATOM     19  C14 UNK     1       0.957  38.984 238.254  1.00  0.00     0.067 A 
ATOM     20  C16 UNK     1       2.338  39.186 238.239  1.00  0.00     0.036 A 
ATOM     21  C15 UNK     1       3.154  38.369 237.457  1.00  0.00     0.005 A 
ATOM     22  C10 UNK     1       2.590  37.349 236.690  1.00  0.00     0.030 A 
BRANCH  19  23
ATOM     23  O1  UNK     1       0.161  39.781 239.017  1.00  0.00    -0.361 OA
ATOM     24  H19 UNK     1      -0.726  39.386 239.066  1.00  0.00     0.217 HD
ENDBRANCH  19  23
ENDBRANCH   1  17
TORSDOF 5
ENDMDL
MODEL 3
REMARK VINA RESULT:      -6.1      2.450      3.768
REMARK  5 active torsions:
REMARK  status: ('A' for Active; 'I' for Inactive)
REMARK    1  A    between atoms: O1_1  and  C14_19 
REMARK    2  A    between atoms: N1_2  and  C1_6 
REMARK    3  A    between atoms: N1_2  and  C5_10 
REMARK    4  A    between atoms: N1_2  and  C6_11 
REMARK    5  A    between atoms: C1_6  and  C2_7 
ROOT
ATOM      1  N1  UNK     1       0.555  36.060 235.466  1.00  0.00    -0.340 N 
ENDROOT
BRANCH   1   2
ATOM      2  C1  UNK     1       0.109  34.899 236.182  1.00  0.00     0.205 C 
BRANCH   2   3
ATOM      3  C2  UNK     1      -1.173  35.252 236.863  1.00  0.00     0.091 A 
ATOM      4  N2  UNK     1      -2.323  35.423 236.156  1.00  0.00    -0.377 N 
ATOM      5  C3  UNK     1      -3.408  35.715 237.044  1.00  0.00     0.140 A 
ATOM      6  H7  UNK     1      -2.427  35.332 235.153  1.00  0.00     0.160 HD
ATOM      7  C4  UNK     1      -2.687  35.735 238.400  1.00  0.00     0.140 A 
ATOM      8  N3  UNK     1      -1.251  35.390 238.163  1.00  0.00    -0.377 N 
ATOM      9  H3  UNK     1      -0.507  35.286 238.853  1.00  0.00     0.160 HD
ENDBRANCH   2   3
ENDBRANCH   1   2
BRANCH   1  10
ATOM     10  C5  UNK     1       0.563  35.956 234.037  1.00  0.00     0.035 A 
ATOM     11  C7  UNK     1       0.078  34.804 233.441  1.00  0.00     0.030 A 
ATOM     12  C12 UNK     1       0.087  34.703 232.049  1.00  0.00     0.009 A 
ATOM     13  C11 UNK     1       0.581  35.754 231.276  1.00  0.00    -0.062 A 
ATOM     14  C13 UNK     1       1.066  36.907 231.895  1.00  0.00     0.009 A 
ATOM     15  C17 UNK     1       0.590  35.645 229.789  1.00  0.00     0.048 C 
ATOM     16  C8  UNK     1       1.058  37.008 233.286  1.00  0.00     0.030 A 
ENDBRANCH   1  10
BRANCH   1  17
ATOM     17  C6  UNK     1       1.173  37.129 236.196  1.00  0.00     0.037 A 
ATOM     18  C9  UNK     1       0.459  38.293 236.417  1.00  0.00     0.066 A 
ATOM     19  C14 UNK     1       1.059  39.333 237.128  1.00  0.00     0.067 A 
ATOM     20  C16 UNK     1       2.362  39.189 237.606  1.00  0.00     0.036 A 
ATOM     21  C15 UNK     1       3.064  38.007 237.373  1.00  0.00     0.005 A 
ATOM     22  C10 UNK     1       2.464  36.968 236.662  1.00  0.00     0.030 A 
BRANCH  19  23
ATOM     23  O1  UNK     1       0.374  40.486 237.355  1.00  0.00    -0.361 OA
ATOM     24  H19 UNK     1      -0.390  40.522 236.753  1.00  0.00     0.217 HD
ENDBRANCH  19  23
ENDBRANCH   1  17
TORSDOF 5
ENDMDL
MODEL 4
REMARK VINA RESULT:      -6.1      2.160      3.353
REMARK  5 active torsions:
REMARK  status: ('A' for Active; 'I' for Inactive)
REMARK    1  A    between atoms: O1_1  and  C14_19 
REMARK    2  A    between atoms: N1_2  and  C1_6 
REMARK    3  A    between atoms: N1_2  and  C5_10 
REMARK    4  A    between atoms: N1_2  and  C6_11 
REMARK    5  A    between atoms: C1_6  and  C2_7 
ROOT
ATOM      1  N1  UNK     1       0.598  36.236 235.904  1.00  0.00    -0.340 N 
ENDROOT
BRANCH   1   2
ATOM      2  C1  UNK     1      -0.025  35.121 236.559  1.00  0.00     0.205 C 
BRANCH   2   3
ATOM      3  C2  UNK     1      -1.363  35.572 237.046  1.00  0.00     0.091 A 
ATOM      4  N2  UNK     1      -2.404  35.745 236.186  1.00  0.00    -0.377 N 
ATOM      5  C3  UNK     1      -3.577  36.139 236.907  1.00  0.00     0.140 A 
ATOM      6  H7  UNK     1      -2.384  35.595 235.185  1.00  0.00     0.160 HD
ATOM      7  C4  UNK     1      -3.034  36.215 238.342  1.00  0.00     0.140 A 
ATOM      8  N3  UNK     1      -1.599  35.796 238.314  1.00  0.00    -0.377 N 
ATOM      9  H3  UNK     1      -0.955  35.705 239.100  1.00  0.00     0.160 HD
ENDBRANCH   2   3
ENDBRANCH   1   2
BRANCH   1  10
ATOM     10  C5  UNK     1       0.658  36.175 234.473  1.00  0.00     0.035 A 
ATOM     11  C7  UNK     1       1.148  37.262 233.770  1.00  0.00     0.030 A 
ATOM     12  C12 UNK     1       1.206  37.201 232.378  1.00  0.00     0.009 A 
ATOM     13  C11 UNK     1       0.772  36.056 231.710  1.00  0.00    -0.062 A 
ATOM     14  C13 UNK     1       0.280  34.970 232.435  1.00  0.00     0.009 A 
ATOM     15  C17 UNK     1       0.834  35.992 230.221  1.00  0.00     0.048 C 
ATOM     16  C8  UNK     1       0.222  35.031 233.828  1.00  0.00     0.030 A 
ENDBRANCH   1  10
BRANCH   1  17
ATOM     17  C6  UNK     1       1.312  37.194 236.696  1.00  0.00     0.037 A 
ATOM     18  C9  UNK     1       2.459  36.796 237.360  1.00  0.00     0.066 A 
ATOM     19  C14 UNK     1       3.156  37.727 238.130  1.00  0.00     0.067 A 
ATOM     20  C16 UNK     1       2.693  39.040 238.223  1.00  0.00     0.036 A 
ATOM     21  C15 UNK     1       1.536  39.422 237.546  1.00  0.00     0.005 A 
ATOM     22  C10 UNK     1       0.839  38.490 236.776  1.00  0.00     0.030 A 
BRANCH  19  23
ATOM     23  O1  UNK     1       4.286  37.355 238.790  1.00  0.00    -0.361 OA
ATOM     24  H19 UNK     1       4.100  37.334 239.745  1.00  0.00     0.217 HD
ENDBRANCH  19  23
ENDBRANCH   1  17
TORSDOF 5
ENDMDL
MODEL 5
REMARK VINA RESULT:      -6.0      1.271      1.699
REMARK  5 active torsions:
REMARK  status: ('A' for Active; 'I' for Inactive)
REMARK    1  A    between atoms: O1_1  and  C14_19 
REMARK    2  A    between atoms: N1_2  and  C1_6 
REMARK    3  A    between atoms: N1_2  and  C5_10 
REMARK    4  A    between atoms: N1_2  and  C6_11 
REMARK    5  A    between atoms: C1_6  and  C2_7 
ROOT
ATOM      1  N1  UNK     1       1.053  36.172 235.953  1.00  0.00    -0.340 N 
ENDROOT
BRANCH   1   2
ATOM      2  C1  UNK     1       0.474  37.320 236.592  1.00  0.00     0.205 C 
BRANCH   2   3
ATOM      3  C2  UNK     1       1.536  37.959 237.425  1.00  0.00     0.091 A 
ATOM      4  N2  UNK     1       1.446  37.987 238.782  1.00  0.00    -0.377 N 
ATOM      5  C3  UNK     1       2.605  38.617 239.340  1.00  0.00     0.140 A 
ATOM      6  H7  UNK     1       0.695  37.599 239.340  1.00  0.00     0.160 HD
ATOM      7  C4  UNK     1       3.377  39.001 238.069  1.00  0.00     0.140 A 
ATOM      8  N3  UNK     1       2.605  38.496 236.891  1.00  0.00    -0.377 N 
ATOM      9  H3  UNK     1       2.853  38.555 235.904  1.00  0.00     0.160 HD
ENDBRANCH   2   3
ENDBRANCH   1   2
BRANCH   1  10
ATOM     10  C5  UNK     1       0.915  36.105 234.529  1.00  0.00     0.035 A 
ATOM     11  C7  UNK     1       0.432  34.943 233.951  1.00  0.00     0.030 A 
ATOM     12  C12 UNK     1       0.298  34.878 232.564  1.00  0.00     0.009 A 
ATOM     13  C11 UNK     1       0.649  35.975 231.777  1.00  0.00    -0.062 A 
ATOM     14  C13 UNK     1       1.135  37.138 232.377  1.00  0.00     0.009 A 
ATOM     15  C17 UNK     1       0.506  35.905 230.294  1.00  0.00     0.048 C 
ATOM     16  C8  UNK     1       1.269  37.202 233.764  1.00  0.00     0.030 A 
ENDBRANCH   1  10
BRANCH   1  17
ATOM     17  C6  UNK     1       1.505  35.082 236.768  1.00  0.00     0.037 A 
ATOM     18  C9  UNK     1       0.604  34.448 237.605  1.00  0.00     0.066 A 
ATOM     19  C14 UNK     1       1.043  33.387 238.397  1.00  0.00     0.067 A 
ATOM     20  C16 UNK     1       2.375  32.977 238.337  1.00  0.00     0.036 A 
ATOM     21  C15 UNK     1       3.268  33.629 237.487  1.00  0.00     0.005 A 
ATOM     22  C10 UNK     1       2.829  34.690 236.695  1.00  0.00     0.030 A 
BRANCH  19  23
ATOM     23  O1  UNK     1       0.171  32.751 239.226  1.00  0.00    -0.361 OA
ATOM     24  H19 UNK     1      -0.527  33.376 239.487  1.00  0.00     0.217 HD
ENDBRANCH  19  23
ENDBRANCH   1  17
TORSDOF 5
ENDMDL
MODEL 6
REMARK VINA RESULT:      -5.8      2.407      5.394
REMARK  5 active torsions:
REMARK  status: ('A' for Active; 'I' for Inactive)
REMARK    1  A    between atoms: O1_1  and  C14_19 
REMARK    2  A    between atoms: N1_2  and  C1_6 
REMARK    3  A    between atoms: N1_2  and  C5_10 
REMARK    4  A    between atoms: N1_2  and  C6_11 
REMARK    5  A    between atoms: C1_6  and  C2_7 
ROOT
ATOM      1  N1  UNK     1       1.614  35.464 236.723  1.00  0.00    -0.340 N 
ENDROOT
BRANCH   1   2
ATOM      2  C1  UNK     1       0.325  35.355 236.101  1.00  0.00     0.205 C 
BRANCH   2   3
ATOM      3  C2  UNK     1       0.488  35.705 234.658  1.00  0.00     0.091 A 
ATOM      4  N2  UNK     1       0.254  34.788 233.680  1.00  0.00    -0.377 N 
ATOM      5  C3  UNK     1       0.441  35.384 232.392  1.00  0.00     0.140 A 
ATOM      6  H7  UNK     1      -0.040  33.828 233.817  1.00  0.00     0.160 HD
ATOM      7  C4  UNK     1       0.875  36.806 232.781  1.00  0.00     0.140 A 
ATOM      8  N3  UNK     1       0.837  36.906 234.272  1.00  0.00    -0.377 N 
ATOM      9  H3  UNK     1       1.037  37.720 234.853  1.00  0.00     0.160 HD
ENDBRANCH   2   3
ENDBRANCH   1   2
BRANCH   1  10
ATOM     10  C5  UNK     1       2.314  34.233 236.947  1.00  0.00     0.035 A 
ATOM     11  C7  UNK     1       2.432  33.748 238.238  1.00  0.00     0.030 A 
ATOM     12  C12 UNK     1       3.113  32.550 238.455  1.00  0.00     0.009 A 
ATOM     13  C11 UNK     1       3.666  31.857 237.378  1.00  0.00    -0.062 A 
ATOM     14  C13 UNK     1       3.538  32.362 236.084  1.00  0.00     0.009 A 
ATOM     15  C17 UNK     1       4.395  30.577 237.611  1.00  0.00     0.048 C 
ATOM     16  C8  UNK     1       2.857  33.559 235.867  1.00  0.00     0.030 A 
ENDBRANCH   1  10
BRANCH   1  17
ATOM     17  C6  UNK     1       2.007  36.723 237.284  1.00  0.00     0.037 A 
ATOM     18  C9  UNK     1       1.048  37.524 237.878  1.00  0.00     0.066 A 
ATOM     19  C14 UNK     1       1.430  38.750 238.425  1.00  0.00     0.067 A 
ATOM     20  C16 UNK     1       2.764  39.152 238.369  1.00  0.00     0.036 A 
ATOM     21  C15 UNK     1       3.716  38.330 237.767  1.00  0.00     0.005 A 
ATOM     22  C10 UNK     1       3.334  37.105 237.220  1.00  0.00     0.030 A 
BRANCH  19  23
ATOM     23  O1  UNK     1       0.501  39.551 239.013  1.00  0.00    -0.361 OA
ATOM     24  H19 UNK     1      -0.238  39.683 238.394  1.00  0.00     0.217 HD
ENDBRANCH  19  23
ENDBRANCH   1  17
TORSDOF 5
ENDMDL
MODEL 7
REMARK VINA RESULT:      -5.7      2.830      6.244
REMARK  5 active torsions:
REMARK  status: ('A' for Active; 'I' for Inactive)
REMARK    1  A    between atoms: O1_1  and  C14_19 
REMARK    2  A    between atoms: N1_2  and  C1_6 
REMARK    3  A    between atoms: N1_2  and  C5_10 
REMARK    4  A    between atoms: N1_2  and  C6_11 
REMARK    5  A    between atoms: C1_6  and  C2_7 
ROOT
ATOM      1  N1  UNK     1       0.552  36.387 235.860  1.00  0.00    -0.340 N 
ENDROOT
BRANCH   1   2
ATOM      2  C1  UNK     1      -0.155  35.246 236.370  1.00  0.00     0.205 C 
BRANCH   2   3
ATOM      3  C2  UNK     1       0.818  34.118 236.472  1.00  0.00     0.091 A 
ATOM      4  N2  UNK     1       1.360  33.552 235.360  1.00  0.00    -0.377 N 
ATOM      5  C3  UNK     1       2.287  32.526 235.732  1.00  0.00     0.140 A 
ATOM      6  H7  UNK     1       1.174  33.820 234.401  1.00  0.00     0.160 HD
ATOM      7  C4  UNK     1       2.163  32.552 237.263  1.00  0.00     0.140 A 
ATOM      8  N3  UNK     1       1.209  33.643 237.629  1.00  0.00    -0.377 N 
ATOM      9  H3  UNK     1       0.928  33.947 238.561  1.00  0.00     0.160 HD
ENDBRANCH   2   3
ENDBRANCH   1   2
BRANCH   1  10
ATOM     10  C5  UNK     1       1.446  37.036 236.773  1.00  0.00     0.035 A 
ATOM     11  C7  UNK     1       0.928  37.667 237.891  1.00  0.00     0.030 A 
ATOM     12  C12 UNK     1       1.799  38.299 238.779  1.00  0.00     0.009 A 
ATOM     13  C11 UNK     1       3.172  38.290 238.536  1.00  0.00    -0.062 A 
ATOM     14  C13 UNK     1       3.676  37.649 237.403  1.00  0.00     0.009 A 
ATOM     15  C17 UNK     1       4.102  38.966 239.486  1.00  0.00     0.048 C 
ATOM     16  C8  UNK     1       2.805  37.017 236.515  1.00  0.00     0.030 A 
ENDBRANCH   1  10
BRANCH   1  17
ATOM     17  C6  UNK     1       0.159  36.936 234.596  1.00  0.00     0.037 A 
ATOM     18  C9  UNK     1      -0.789  37.944 234.566  1.00  0.00     0.066 A 
ATOM     19  C14 UNK     1      -1.172  38.480 233.336  1.00  0.00     0.067 A 
ATOM     20  C16 UNK     1      -0.600  37.999 232.158  1.00  0.00     0.036 A 
ATOM     21  C15 UNK     1       0.354  36.983 232.209  1.00  0.00     0.005 A 
ATOM     22  C10 UNK     1       0.737  36.447 233.439  1.00  0.00     0.030 A 
BRANCH  19  23
ATOM     23  O1  UNK     1      -2.102  39.472 233.286  1.00  0.00    -0.361 OA
ATOM     24  H19 UNK     1      -2.012  40.028 234.079  1.00  0.00     0.217 HD
ENDBRANCH  19  23
ENDBRANCH   1  17
TORSDOF 5
ENDMDL
MODEL 8
REMARK VINA RESULT:      -5.7      1.898      2.527
REMARK  5 active torsions:
REMARK  status: ('A' for Active; 'I' for Inactive)
REMARK    1  A    between atoms: O1_1  and  C14_19 
REMARK    2  A    between atoms: N1_2  and  C1_6 
REMARK    3  A    between atoms: N1_2  and  C5_10 
REMARK    4  A    between atoms: N1_2  and  C6_11 
REMARK    5  A    between atoms: C1_6  and  C2_7 
ROOT
ATOM      1  N1  UNK     1       0.783  36.661 234.875  1.00  0.00    -0.340 N 
ENDROOT
BRANCH   1   2
ATOM      2  C1  UNK     1      -0.191  37.609 235.337  1.00  0.00     0.205 C 
BRANCH   2   3
ATOM      3  C2  UNK     1      -1.182  36.868 236.174  1.00  0.00     0.091 A 
ATOM      4  N2  UNK     1      -1.109  36.884 237.533  1.00  0.00    -0.377 N 
ATOM      5  C3  UNK     1      -2.193  36.135 238.093  1.00  0.00     0.140 A 
ATOM      6  H7  UNK     1      -0.417  37.373 238.089  1.00  0.00     0.160 HD
ATOM      7  C4  UNK     1      -2.895  35.630 236.823  1.00  0.00     0.140 A 
ATOM      8  N3  UNK     1      -2.171  36.195 235.642  1.00  0.00    -0.377 N 
ATOM      9  H3  UNK     1      -2.396  36.082 234.654  1.00  0.00     0.160 HD
ENDBRANCH   2   3
ENDBRANCH   1   2
BRANCH   1  10
ATOM     10  C5  UNK     1       0.648  36.229 233.515  1.00  0.00     0.035 A 
ATOM     11  C7  UNK     1       1.113  37.045 232.498  1.00  0.00     0.030 A 
ATOM     12  C12 UNK     1       0.981  36.625 231.174  1.00  0.00     0.009 A 
ATOM     13  C11 UNK     1       0.386  35.396 230.888  1.00  0.00    -0.062 A 
ATOM     14  C13 UNK     1      -0.077  34.587 231.927  1.00  0.00     0.009 A 
ATOM     15  C17 UNK     1       0.245  34.947 229.473  1.00  0.00     0.048 C 
ATOM     16  C8  UNK     1       0.055  35.007 233.250  1.00  0.00     0.030 A 
ENDBRANCH   1  10
BRANCH   1  17
ATOM     17  C6  UNK     1       1.652  36.040 235.831  1.00  0.00     0.037 A 
ATOM     18  C9  UNK     1       2.455  36.837 236.628  1.00  0.00     0.066 A 
ATOM     19  C14 UNK     1       3.300  36.234 237.559  1.00  0.00     0.067 A 
ATOM     20  C16 UNK     1       3.327  34.844 237.678  1.00  0.00     0.036 A 
ATOM     21  C15 UNK     1       2.510  34.058 236.866  1.00  0.00     0.005 A 
ATOM     22  C10 UNK     1       1.665  34.662 235.935  1.00  0.00     0.030 A 
BRANCH  19  23
ATOM     23  O1  UNK     1       4.097  37.001 238.352  1.00  0.00    -0.361 OA
ATOM     24  H19 UNK     1       4.721  37.491 237.790  1.00  0.00     0.217 HD
ENDBRANCH  19  23
ENDBRANCH   1  17
TORSDOF 5
ENDMDL
MODEL 9
REMARK VINA RESULT:      -5.6      2.390      3.008
REMARK  5 active torsions:
REMARK  status: ('A' for Active; 'I' for Inactive)
REMARK    1  A    between atoms: O1_1  and  C14_19 
REMARK    2  A    between atoms: N1_2  and  C1_6 
REMARK    3  A    between atoms: N1_2  and  C5_10 
REMARK    4  A    between atoms: N1_2  and  C6_11 
REMARK    5  A    between atoms: C1_6  and  C2_7 
ROOT
ATOM      1  N1  UNK     1       1.130  35.313 236.318  1.00  0.00    -0.340 N 
ENDROOT
BRANCH   1   2
ATOM      2  C1  UNK     1       1.067  35.542 237.734  1.00  0.00     0.205 C 
BRANCH   2   3
ATOM      3  C2  UNK     1       1.773  36.828 238.016  1.00  0.00     0.091 A 
ATOM      4  N2  UNK     1       1.115  37.888 238.559  1.00  0.00    -0.377 N 
ATOM      5  C3  UNK     1       2.022  38.977 238.765  1.00  0.00     0.140 A 
ATOM      6  H7  UNK     1       0.136  37.917 238.817  1.00  0.00     0.160 HD
ATOM      7  C4  UNK     1       3.326  38.391 238.203  1.00  0.00     0.140 A 
ATOM      8  N3  UNK     1       3.051  36.984 237.776  1.00  0.00    -0.377 N 
ATOM      9  H3  UNK     1       3.706  36.304 237.390  1.00  0.00     0.160 HD
ENDBRANCH   2   3
ENDBRANCH   1   2
BRANCH   1  10
ATOM     10  C5  UNK     1       0.388  36.223 235.497  1.00  0.00     0.035 A 
ATOM     11  C7  UNK     1       1.054  36.966 234.537  1.00  0.00     0.030 A 
ATOM     12  C12 UNK     1       0.330  37.851 233.739  1.00  0.00     0.009 A 
ATOM     13  C11 UNK     1      -1.048  37.982 233.913  1.00  0.00    -0.062 A 
ATOM     14  C13 UNK     1      -1.702  37.225 234.886  1.00  0.00     0.009 A 
ATOM     15  C17 UNK     1      -1.821  38.929 233.059  1.00  0.00     0.048 C 
ATOM     16  C8  UNK     1      -0.979  36.339 235.684  1.00  0.00     0.030 A 
ENDBRANCH   1  10
BRANCH   1  17
ATOM     17  C6  UNK     1       1.710  34.092 235.840  1.00  0.00     0.037 A 
ATOM     18  C9  UNK     1       1.066  33.388 234.838  1.00  0.00     0.066 A 
ATOM     19  C14 UNK     1       1.630  32.200 234.372  1.00  0.00     0.067 A 
ATOM     20  C16 UNK     1       2.829  31.738 234.915  1.00  0.00     0.036 A 
ATOM     21  C15 UNK     1       3.463  32.462 235.924  1.00  0.00     0.005 A 
ATOM     22  C10 UNK     1       2.899  33.650 236.390  1.00  0.00     0.030 A 
BRANCH  19  23
ATOM     23  O1  UNK     1       1.012  31.494 233.388  1.00  0.00    -0.361 OA
ATOM     24  H19 UNK     1       0.055  31.664 233.431  1.00  0.00     0.217 HD
ENDBRANCH  19  23
ENDBRANCH   1  17
TORSDOF 5
ENDMDL
