MODEL 1
REMARK VINA RESULT:      -5.7      0.000      0.000
REMARK  13 active torsions:
REMARK  status: ('A' for Active; 'I' for Inactive)
REMARK    1  A    between atoms: O3_3  and  C7_12 
REMARK    2  A    between atoms: O3_3  and  C12_17 
REMARK    3  A    between atoms: O4_4  and  C14_19 
REMARK    4  A    between atoms: O4_4  and  C18_23 
REMARK    5  A    between atoms: O5_5  and  C15_20 
REMARK    6  A    between atoms: O5_5  and  C17_22 
REMARK    7  A    between atoms: C1_6  and  C3_8 
REMARK    8  A    between atoms: C2_7  and  C7_12 
REMARK    9  A    between atoms: C3_8  and  C5_10 
REMARK   10  A    between atoms: C12_17  and  C14_19 
REMARK   11  A    between atoms: C13_18  and  C15_20 
REMARK   12  A    between atoms: C13_18  and  C16_21 
REMARK   13  A    between atoms: C17_22  and  C18_23 
ROOT
ATOM      1  O1  UNK     1       1.008  44.537 228.082  1.00  0.00    -0.323 OA
ATOM      2  O2  UNK     1       0.731  43.588 230.279  1.00  0.00    -0.323 OA
ATOM      3  C1  UNK     1      -2.096  42.689 227.441  1.00  0.00    -0.047 A 
ATOM      4  C2  UNK     1      -2.258  42.134 228.723  1.00  0.00    -0.025 A 
ATOM      5  C4  UNK     1      -1.006  43.514 227.156  1.00  0.00     0.047 A 
ATOM      6  C6  UNK     1      -0.107  43.761 228.172  1.00  0.00     0.105 A 
ATOM      7  C8  UNK     1      -1.331  42.399 229.735  1.00  0.00     0.049 A 
ATOM      8  C9  UNK     1      -0.264  43.218 229.427  1.00  0.00     0.105 A 
ATOM      9  C11 UNK     1       1.534  44.422 229.419  1.00  0.00     0.352 A 
ENDROOT
BRANCH   4  10
ATOM     10  C7  UNK     1      -3.423  41.250 229.029  1.00  0.00     0.207 C 
BRANCH  10  11
ATOM     11  O3  UNK     1      -2.994  39.896 229.039  1.00  0.00    -0.385 OA
BRANCH  11  12
ATOM     12  C12 UNK     1      -3.324  39.252 230.263  1.00  0.00     0.194 C 
BRANCH  12  13
ATOM     13  C14 UNK     1      -2.060  38.686 230.880  1.00  0.00     0.193 C 
BRANCH  13  14
ATOM     14  O4  UNK     1      -1.880  39.253 232.172  1.00  0.00    -0.387 OA
BRANCH  14  15
ATOM     15  C18 UNK     1      -2.624  38.550 233.158  1.00  0.00     0.193 C 
BRANCH  15  16
ATOM     16  C17 UNK     1      -1.662  37.900 234.133  1.00  0.00     0.193 C 
BRANCH  16  17
ATOM     17  O5  UNK     1      -0.353  38.405 233.901  1.00  0.00    -0.389 OA
BRANCH  17  18
ATOM     18  C15 UNK     1       0.576  37.899 234.848  1.00  0.00     0.167 C 
BRANCH  18  19
ATOM     19  C13 UNK     1       0.093  38.252 236.248  1.00  0.00     0.026 C 
BRANCH  19  20
ATOM     20  C16 UNK     1       1.141  39.048 237.022  1.00  0.00    -0.002 C 
ATOM     21  C19 UNK     1       0.559  39.645 238.293  1.00  0.00     0.005 C 
ENDBRANCH  19  20
ENDBRANCH  18  19
ENDBRANCH  17  18
ENDBRANCH  16  17
ENDBRANCH  15  16
ENDBRANCH  14  15
ENDBRANCH  13  14
ENDBRANCH  12  13
ENDBRANCH  11  12
ENDBRANCH  10  11
ENDBRANCH   4  10
BRANCH   3  22
ATOM     22  C3  UNK     1      -3.085  42.403 226.358  1.00  0.00     0.039 C 
BRANCH  22  23
ATOM     23  C5  UNK     1      -2.477  42.568 224.960  1.00  0.00     0.000 C 
ATOM     24  C10 UNK     1      -3.466  42.201 223.866  1.00  0.00     0.005 C 
ENDBRANCH  22  23
ENDBRANCH   3  22
TORSDOF 13
ENDMDL
MODEL 2
REMARK VINA RESULT:      -5.5      2.596      8.843
REMARK  13 active torsions:
REMARK  status: ('A' for Active; 'I' for Inactive)
REMARK    1  A    between atoms: O3_3  and  C7_12 
REMARK    2  A    between atoms: O3_3  and  C12_17 
REMARK    3  A    between atoms: O4_4  and  C14_19 
REMARK    4  A    between atoms: O4_4  and  C18_23 
REMARK    5  A    between atoms: O5_5  and  C15_20 
REMARK    6  A    between atoms: O5_5  and  C17_22 
REMARK    7  A    between atoms: C1_6  and  C3_8 
REMARK    8  A    between atoms: C2_7  and  C7_12 
REMARK    9  A    between atoms: C3_8  and  C5_10 
REMARK   10  A    between atoms: C12_17  and  C14_19 
REMARK   11  A    between atoms: C13_18  and  C15_20 
REMARK   12  A    between atoms: C13_18  and  C16_21 
REMARK   13  A    between atoms: C17_22  and  C18_23 
ROOT
ATOM      1  O1  UNK     1       0.997  37.712 237.907  1.00  0.00    -0.323 OA
ATOM      2  O2  UNK     1       1.695  39.395 236.330  1.00  0.00    -0.323 OA
ATOM      3  C1  UNK     1       0.540  35.747 234.842  1.00  0.00    -0.047 A 
ATOM      4  C2  UNK     1       0.946  36.729 233.922  1.00  0.00    -0.025 A 
ATOM      5  C4  UNK     1       0.533  36.017 236.212  1.00  0.00     0.047 A 
ATOM      6  C6  UNK     1       0.938  37.271 236.621  1.00  0.00     0.105 A 
ATOM      7  C8  UNK     1       1.351  37.993 234.361  1.00  0.00     0.049 A 
ATOM      8  C9  UNK     1       1.335  38.233 235.720  1.00  0.00     0.105 A 
ATOM      9  C11 UNK     1       1.477  39.058 237.715  1.00  0.00     0.352 A 
ENDROOT
BRANCH   4  10
ATOM     10  C7  UNK     1       0.953  36.442 232.455  1.00  0.00     0.207 C 
BRANCH  10  11
ATOM     11  O3  UNK     1       0.202  37.440 231.778  1.00  0.00    -0.385 OA
BRANCH  11  12
ATOM     12  C12 UNK     1      -1.156  37.052 231.617  1.00  0.00     0.194 C 
BRANCH  12  13
ATOM     13  C14 UNK     1      -1.769  37.854 230.486  1.00  0.00     0.193 C 
BRANCH  13  14
ATOM     14  O4  UNK     1      -0.907  38.941 230.167  1.00  0.00    -0.387 OA
BRANCH  14  15
ATOM     15  C18 UNK     1      -1.574  40.189 230.293  1.00  0.00     0.193 C 
BRANCH  15  16
ATOM     16  C17 UNK     1      -0.867  41.217 229.432  1.00  0.00     0.193 C 
BRANCH  16  17
ATOM     17  O5  UNK     1      -0.547  42.350 230.229  1.00  0.00    -0.389 OA
BRANCH  17  18
ATOM     18  C15 UNK     1      -0.275  43.491 229.427  1.00  0.00     0.167 C 
BRANCH  18  19
ATOM     19  C13 UNK     1       1.027  44.125 229.899  1.00  0.00     0.026 C 
BRANCH  19  20
ATOM     20  C16 UNK     1       2.244  43.387 229.350  1.00  0.00    -0.002 C 
ATOM     21  C19 UNK     1       3.540  44.050 229.787  1.00  0.00     0.005 C 
ENDBRANCH  19  20
ENDBRANCH  18  19
ENDBRANCH  17  18
ENDBRANCH  16  17
ENDBRANCH  15  16
ENDBRANCH  14  15
ENDBRANCH  13  14
ENDBRANCH  12  13
ENDBRANCH  11  12
ENDBRANCH  10  11
ENDBRANCH   4  10
BRANCH   3  22
ATOM     22  C3  UNK     1       0.104  34.397 234.372  1.00  0.00     0.039 C 
BRANCH  22  23
ATOM     23  C5  UNK     1       1.150  33.315 234.669  1.00  0.00     0.000 C 
ATOM     24  C10 UNK     1       1.123  32.203 233.634  1.00  0.00     0.005 C 
ENDBRANCH  22  23
ENDBRANCH   3  22
TORSDOF 13
ENDMDL
MODEL 3
REMARK VINA RESULT:      -5.4      4.608      9.837
REMARK  13 active torsions:
REMARK  status: ('A' for Active; 'I' for Inactive)
REMARK    1  A    between atoms: O3_3  and  C7_12 
REMARK    2  A    between atoms: O3_3  and  C12_17 
REMARK    3  A    between atoms: O4_4  and  C14_19 
REMARK    4  A    between atoms: O4_4  and  C18_23 
REMARK    5  A    between atoms: O5_5  and  C15_20 
REMARK    6  A    between atoms: O5_5  and  C17_22 
REMARK    7  A    between atoms: C1_6  and  C3_8 
REMARK    8  A    between atoms: C2_7  and  C7_12 
REMARK    9  A    between atoms: C3_8  and  C5_10 
REMARK   10  A    between atoms: C12_17  and  C14_19 
REMARK   11  A    between atoms: C13_18  and  C15_20 
REMARK   12  A    between atoms: C13_18  and  C16_21 
REMARK   13  A    between atoms: C17_22  and  C18_23 
ROOT
ATOM      1  O1  UNK     1       4.311  37.289 239.516  1.00  0.00    -0.323 OA
ATOM      2  O2  UNK     1       3.480  39.329 238.538  1.00  0.00    -0.323 OA
ATOM      3  C1  UNK     1       2.534  35.795 236.674  1.00  0.00    -0.047 A 
ATOM      4  C2  UNK     1       2.049  36.985 236.103  1.00  0.00    -0.025 A 
ATOM      5  C4  UNK     1       3.309  35.828 237.835  1.00  0.00     0.047 A 
ATOM      6  C6  UNK     1       3.577  37.062 238.392  1.00  0.00     0.105 A 
ATOM      7  C8  UNK     1       2.334  38.222 236.688  1.00  0.00     0.049 A 
ATOM      8  C9  UNK     1       3.101  38.226 237.835  1.00  0.00     0.105 A 
ATOM      9  C11 UNK     1       4.245  38.726 239.602  1.00  0.00     0.352 A 
ENDROOT
BRANCH   4  10
ATOM     10  C7  UNK     1       1.219  36.951 234.862  1.00  0.00     0.207 C 
BRANCH  10  11
ATOM     11  O3  UNK     1      -0.023  37.596 235.109  1.00  0.00    -0.385 OA
BRANCH  11  12
ATOM     12  C12 UNK     1      -1.118  36.712 234.914  1.00  0.00     0.194 C 
BRANCH  12  13
ATOM     13  C14 UNK     1      -2.214  37.440 234.161  1.00  0.00     0.193 C 
BRANCH  13  14
ATOM     14  O4  UNK     1      -1.734  38.719 233.763  1.00  0.00    -0.387 OA
BRANCH  14  15
ATOM     15  C18 UNK     1      -2.206  39.074 232.471  1.00  0.00     0.193 C 
BRANCH  15  16
ATOM     16  C17 UNK     1      -2.516  37.810 231.692  1.00  0.00     0.193 C 
BRANCH  16  17
ATOM     17  O5  UNK     1      -2.113  37.988 230.341  1.00  0.00    -0.389 OA
BRANCH  17  18
ATOM     18  C15 UNK     1      -0.721  38.255 230.243  1.00  0.00     0.167 C 
BRANCH  18  19
ATOM     19  C13 UNK     1      -0.025  37.032 229.660  1.00  0.00     0.026 C 
BRANCH  19  20
ATOM     20  C16 UNK     1       0.955  36.414 230.652  1.00  0.00    -0.002 C 
ATOM     21  C19 UNK     1       0.249  35.485 231.626  1.00  0.00     0.005 C 
ENDBRANCH  19  20
ENDBRANCH  18  19
ENDBRANCH  17  18
ENDBRANCH  16  17
ENDBRANCH  15  16
ENDBRANCH  14  15
ENDBRANCH  13  14
ENDBRANCH  12  13
ENDBRANCH  11  12
ENDBRANCH  10  11
ENDBRANCH   4  10
BRANCH   3  22
ATOM     22  C3  UNK     1       2.227  34.472 236.050  1.00  0.00     0.039 C 
BRANCH  22  23
ATOM     23  C5  UNK     1       3.058  33.337 236.662  1.00  0.00     0.000 C 
ATOM     24  C10 UNK     1       3.365  32.249 235.646  1.00  0.00     0.005 C 
ENDBRANCH  22  23
ENDBRANCH   3  22
TORSDOF 13
ENDMDL
MODEL 4
REMARK VINA RESULT:      -5.4      3.274     10.005
REMARK  13 active torsions:
REMARK  status: ('A' for Active; 'I' for Inactive)
REMARK    1  A    between atoms: O3_3  and  C7_12 
REMARK    2  A    between atoms: O3_3  and  C12_17 
REMARK    3  A    between atoms: O4_4  and  C14_19 
REMARK    4  A    between atoms: O4_4  and  C18_23 
REMARK    5  A    between atoms: O5_5  and  C15_20 
REMARK    6  A    between atoms: O5_5  and  C17_22 
REMARK    7  A    between atoms: C1_6  and  C3_8 
REMARK    8  A    between atoms: C2_7  and  C7_12 
REMARK    9  A    between atoms: C3_8  and  C5_10 
REMARK   10  A    between atoms: C12_17  and  C14_19 
REMARK   11  A    between atoms: C13_18  and  C15_20 
REMARK   12  A    between atoms: C13_18  and  C16_21 
REMARK   13  A    between atoms: C17_22  and  C18_23 
ROOT
ATOM      1  O1  UNK     1       4.256  37.270 239.577  1.00  0.00    -0.323 OA
ATOM      2  O2  UNK     1       3.667  39.377 238.566  1.00  0.00    -0.323 OA
ATOM      3  C1  UNK     1       2.470  35.943 236.660  1.00  0.00    -0.047 A 
ATOM      4  C2  UNK     1       2.126  37.172 236.070  1.00  0.00    -0.025 A 
ATOM      5  C4  UNK     1       3.193  35.906 237.854  1.00  0.00     0.047 A 
ATOM      6  C6  UNK     1       3.553  37.111 238.423  1.00  0.00     0.105 A 
ATOM      7  C8  UNK     1       2.502  38.379 236.667  1.00  0.00     0.049 A 
ATOM      8  C9  UNK     1       3.216  38.313 237.846  1.00  0.00     0.105 A 
ATOM      9  C11 UNK     1       4.324  38.708 239.662  1.00  0.00     0.352 A 
ENDROOT
BRANCH   4  10
ATOM     10  C7  UNK     1       1.351  37.214 234.793  1.00  0.00     0.207 C 
BRANCH  10  11
ATOM     11  O3  UNK     1       0.497  38.349 234.798  1.00  0.00    -0.385 OA
BRANCH  11  12
ATOM     12  C12 UNK     1      -0.784  38.041 234.263  1.00  0.00     0.194 C 
BRANCH  12  13
ATOM     13  C14 UNK     1      -0.635  37.679 232.799  1.00  0.00     0.193 C 
BRANCH  13  14
ATOM     14  O4  UNK     1      -1.326  38.640 232.010  1.00  0.00    -0.387 OA
BRANCH  14  15
ATOM     15  C18 UNK     1      -1.045  38.477 230.626  1.00  0.00     0.193 C 
BRANCH  15  16
ATOM     16  C17 UNK     1      -1.715  39.595 229.851  1.00  0.00     0.193 C 
BRANCH  16  17
ATOM     17  O5  UNK     1      -1.388  40.840 230.455  1.00  0.00    -0.389 OA
BRANCH  17  18
ATOM     18  C15 UNK     1      -1.610  41.925 229.565  1.00  0.00     0.167 C 
BRANCH  18  19
ATOM     19  C13 UNK     1      -0.294  42.284 228.890  1.00  0.00     0.026 C 
BRANCH  19  20
ATOM     20  C16 UNK     1       0.434  43.401 229.632  1.00  0.00    -0.002 C 
ATOM     21  C19 UNK     1       1.942  43.269 229.499  1.00  0.00     0.005 C 
ENDBRANCH  19  20
ENDBRANCH  18  19
ENDBRANCH  17  18
ENDBRANCH  16  17
ENDBRANCH  15  16
ENDBRANCH  14  15
ENDBRANCH  13  14
ENDBRANCH  12  13
ENDBRANCH  11  12
ENDBRANCH  10  11
ENDBRANCH   4  10
BRANCH   3  22
ATOM     22  C3  UNK     1       2.065  34.654 236.023  1.00  0.00     0.039 C 
BRANCH  22  23
ATOM     23  C5  UNK     1       3.146  33.574 236.164  1.00  0.00     0.000 C 
ATOM     24  C10 UNK     1       2.695  32.243 235.586  1.00  0.00     0.005 C 
ENDBRANCH  22  23
ENDBRANCH   3  22
TORSDOF 13
ENDMDL
MODEL 5
REMARK VINA RESULT:      -5.4      2.468      8.259
REMARK  13 active torsions:
REMARK  status: ('A' for Active; 'I' for Inactive)
REMARK    1  A    between atoms: O3_3  and  C7_12 
REMARK    2  A    between atoms: O3_3  and  C12_17 
REMARK    3  A    between atoms: O4_4  and  C14_19 
REMARK    4  A    between atoms: O4_4  and  C18_23 
REMARK    5  A    between atoms: O5_5  and  C15_20 
REMARK    6  A    between atoms: O5_5  and  C17_22 
REMARK    7  A    between atoms: C1_6  and  C3_8 
REMARK    8  A    between atoms: C2_7  and  C7_12 
REMARK    9  A    between atoms: C3_8  and  C5_10 
REMARK   10  A    between atoms: C12_17  and  C14_19 
REMARK   11  A    between atoms: C13_18  and  C15_20 
REMARK   12  A    between atoms: C13_18  and  C16_21 
REMARK   13  A    between atoms: C17_22  and  C18_23 
ROOT
ATOM      1  O1  UNK     1       2.903  38.574 237.043  1.00  0.00    -0.323 OA
ATOM      2  O2  UNK     1       0.740  39.034 238.001  1.00  0.00    -0.323 OA
ATOM      3  C1  UNK     1       0.859  37.570 234.167  1.00  0.00    -0.047 A 
ATOM      4  C2  UNK     1      -0.403  37.837 234.725  1.00  0.00    -0.025 A 
ATOM      5  C4  UNK     1       2.024  37.798 234.902  1.00  0.00     0.047 A 
ATOM      6  C6  UNK     1       1.887  38.291 236.183  1.00  0.00     0.105 A 
ATOM      7  C8  UNK     1      -0.515  38.336 236.026  1.00  0.00     0.049 A 
ATOM      8  C9  UNK     1       0.652  38.552 236.730  1.00  0.00     0.105 A 
ATOM      9  C11 UNK     1       2.169  39.043 238.192  1.00  0.00     0.352 A 
ENDROOT
BRANCH   4  10
ATOM     10  C7  UNK     1      -1.651  37.592 233.940  1.00  0.00     0.207 C 
BRANCH  10  11
ATOM     11  O3  UNK     1      -2.286  38.834 233.669  1.00  0.00    -0.385 OA
BRANCH  11  12
ATOM     12  C12 UNK     1      -2.715  38.917 232.316  1.00  0.00     0.194 C 
BRANCH  12  13
ATOM     13  C14 UNK     1      -1.563  39.407 231.461  1.00  0.00     0.193 C 
BRANCH  13  14
ATOM     14  O4  UNK     1      -2.048  40.378 230.540  1.00  0.00    -0.387 OA
BRANCH  14  15
ATOM     15  C18 UNK     1      -1.118  40.611 229.491  1.00  0.00     0.193 C 
BRANCH  15  16
ATOM     16  C17 UNK     1      -0.607  42.036 229.591  1.00  0.00     0.193 C 
BRANCH  16  17
ATOM     17  O5  UNK     1       0.010  42.395 228.362  1.00  0.00    -0.389 OA
BRANCH  17  18
ATOM     18  C15 UNK     1       1.418  42.523 228.505  1.00  0.00     0.167 C 
BRANCH  18  19
ATOM     19  C13 UNK     1       1.711  43.444 229.681  1.00  0.00     0.026 C 
BRANCH  19  20
ATOM     20  C16 UNK     1       2.414  44.722 229.235  1.00  0.00    -0.002 C 
ATOM     21  C19 UNK     1       1.416  45.790 228.818  1.00  0.00     0.005 C 
ENDBRANCH  19  20
ENDBRANCH  18  19
ENDBRANCH  17  18
ENDBRANCH  16  17
ENDBRANCH  15  16
ENDBRANCH  14  15
ENDBRANCH  13  14
ENDBRANCH  12  13
ENDBRANCH  11  12
ENDBRANCH  10  11
ENDBRANCH   4  10
BRANCH   3  22
ATOM     22  C3  UNK     1       0.978  37.033 232.777  1.00  0.00     0.039 C 
BRANCH  22  23
ATOM     23  C5  UNK     1       0.622  35.543 232.699  1.00  0.00     0.000 C 
ATOM     24  C10 UNK     1       0.108  35.156 231.322  1.00  0.00     0.005 C 
ENDBRANCH  22  23
ENDBRANCH   3  22
TORSDOF 13
ENDMDL
MODEL 6
REMARK VINA RESULT:      -5.4      1.616      2.235
REMARK  13 active torsions:
REMARK  status: ('A' for Active; 'I' for Inactive)
REMARK    1  A    between atoms: O3_3  and  C7_12 
REMARK    2  A    between atoms: O3_3  and  C12_17 
REMARK    3  A    between atoms: O4_4  and  C14_19 
REMARK    4  A    between atoms: O4_4  and  C18_23 
REMARK    5  A    between atoms: O5_5  and  C15_20 
REMARK    6  A    between atoms: O5_5  and  C17_22 
REMARK    7  A    between atoms: C1_6  and  C3_8 
REMARK    8  A    between atoms: C2_7  and  C7_12 
REMARK    9  A    between atoms: C3_8  and  C5_10 
REMARK   10  A    between atoms: C12_17  and  C14_19 
REMARK   11  A    between atoms: C13_18  and  C15_20 
REMARK   12  A    between atoms: C13_18  and  C16_21 
REMARK   13  A    between atoms: C17_22  and  C18_23 
ROOT
ATOM      1  O1  UNK     1       1.245  44.640 228.111  1.00  0.00    -0.323 OA
ATOM      2  O2  UNK     1       0.976  43.695 230.312  1.00  0.00    -0.323 OA
ATOM      3  C1  UNK     1      -1.819  42.728 227.465  1.00  0.00    -0.047 A 
ATOM      4  C2  UNK     1      -1.976  42.176 228.748  1.00  0.00    -0.025 A 
ATOM      5  C4  UNK     1      -0.745  43.574 227.181  1.00  0.00     0.047 A 
ATOM      6  C6  UNK     1       0.145  43.843 228.200  1.00  0.00     0.105 A 
ATOM      7  C8  UNK     1      -1.059  42.464 229.764  1.00  0.00     0.049 A 
ATOM      8  C9  UNK     1      -0.008  43.302 229.457  1.00  0.00     0.105 A 
ATOM      9  C11 UNK     1       1.766  44.541 229.452  1.00  0.00     0.352 A 
ENDROOT
BRANCH   4  10
ATOM     10  C7  UNK     1      -3.125  41.270 229.053  1.00  0.00     0.207 C 
BRANCH  10  11
ATOM     11  O3  UNK     1      -2.632  39.974 229.360  1.00  0.00    -0.385 OA
BRANCH  11  12
ATOM     12  C12 UNK     1      -3.281  39.425 230.499  1.00  0.00     0.194 C 
BRANCH  12  13
ATOM     13  C14 UNK     1      -2.237  38.837 231.429  1.00  0.00     0.193 C 
BRANCH  13  14
ATOM     14  O4  UNK     1      -2.855  37.868 232.267  1.00  0.00    -0.387 OA
BRANCH  14  15
ATOM     15  C18 UNK     1      -2.963  36.609 231.617  1.00  0.00     0.193 C 
BRANCH  15  16
ATOM     16  C17 UNK     1      -1.634  36.272 230.968  1.00  0.00     0.193 C 
BRANCH  16  17
ATOM     17  O5  UNK     1      -0.873  35.467 231.860  1.00  0.00    -0.389 OA
BRANCH  17  18
ATOM     18  C15 UNK     1       0.521  35.598 231.618  1.00  0.00     0.167 C 
BRANCH  18  19
ATOM     19  C13 UNK     1       1.009  36.896 232.245  1.00  0.00     0.026 C 
BRANCH  19  20
ATOM     20  C16 UNK     1       0.921  36.854 233.768  1.00  0.00    -0.002 C 
ATOM     21  C19 UNK     1       0.075  37.995 234.308  1.00  0.00     0.005 C 
ENDBRANCH  19  20
ENDBRANCH  18  19
ENDBRANCH  17  18
ENDBRANCH  16  17
ENDBRANCH  15  16
ENDBRANCH  14  15
ENDBRANCH  13  14
ENDBRANCH  12  13
ENDBRANCH  11  12
ENDBRANCH  10  11
ENDBRANCH   4  10
BRANCH   3  22
ATOM     22  C3  UNK     1      -2.798  42.418 226.378  1.00  0.00     0.039 C 
BRANCH  22  23
ATOM     23  C5  UNK     1      -3.883  43.495 226.252  1.00  0.00     0.000 C 
ATOM     24  C10 UNK     1      -5.278  42.913 226.413  1.00  0.00     0.005 C 
ENDBRANCH  22  23
ENDBRANCH   3  22
TORSDOF 13
ENDMDL
MODEL 7
REMARK VINA RESULT:      -5.3      6.849      9.703
REMARK  13 active torsions:
REMARK  status: ('A' for Active; 'I' for Inactive)
REMARK    1  A    between atoms: O3_3  and  C7_12 
REMARK    2  A    between atoms: O3_3  and  C12_17 
REMARK    3  A    between atoms: O4_4  and  C14_19 
REMARK    4  A    between atoms: O4_4  and  C18_23 
REMARK    5  A    between atoms: O5_5  and  C15_20 
REMARK    6  A    between atoms: O5_5  and  C17_22 
REMARK    7  A    between atoms: C1_6  and  C3_8 
REMARK    8  A    between atoms: C2_7  and  C7_12 
REMARK    9  A    between atoms: C3_8  and  C5_10 
REMARK   10  A    between atoms: C12_17  and  C14_19 
REMARK   11  A    between atoms: C13_18  and  C15_20 
REMARK   12  A    between atoms: C13_18  and  C16_21 
REMARK   13  A    between atoms: C17_22  and  C18_23 
ROOT
ATOM      1  O1  UNK     1       4.325  37.305 239.601  1.00  0.00    -0.323 OA
ATOM      2  O2  UNK     1       3.575  39.377 238.626  1.00  0.00    -0.323 OA
ATOM      3  C1  UNK     1       2.556  35.889 236.714  1.00  0.00    -0.047 A 
ATOM      4  C2  UNK     1       2.118  37.098 236.146  1.00  0.00    -0.025 A 
ATOM      5  C4  UNK     1       3.310  35.889 237.890  1.00  0.00     0.047 A 
ATOM      6  C6  UNK     1       3.605  37.109 238.462  1.00  0.00     0.105 A 
ATOM      7  C8  UNK     1       2.429  38.322 236.747  1.00  0.00     0.049 A 
ATOM      8  C9  UNK     1       3.176  38.293 237.906  1.00  0.00     0.105 A 
ATOM      9  C11 UNK     1       4.301  38.743 239.698  1.00  0.00     0.352 A 
ENDROOT
BRANCH   4  10
ATOM     10  C7  UNK     1       1.309  37.100 234.889  1.00  0.00     0.207 C 
BRANCH  10  11
ATOM     11  O3  UNK     1       0.262  38.052 235.006  1.00  0.00    -0.385 OA
BRANCH  11  12
ATOM     12  C12 UNK     1      -0.912  37.624 234.327  1.00  0.00     0.194 C 
BRANCH  12  13
ATOM     13  C14 UNK     1      -0.909  36.111 234.241  1.00  0.00     0.193 C 
BRANCH  13  14
ATOM     14  O4  UNK     1      -2.217  35.627 234.527  1.00  0.00    -0.387 OA
BRANCH  14  15
ATOM     15  C18 UNK     1      -3.048  36.653 235.052  1.00  0.00     0.193 C 
BRANCH  15  16
ATOM     16  C17 UNK     1      -3.885  36.083 236.181  1.00  0.00     0.193 C 
BRANCH  16  17
ATOM     17  O5  UNK     1      -3.023  35.493 237.146  1.00  0.00    -0.389 OA
BRANCH  17  18
ATOM     18  C15 UNK     1      -2.404  36.478 237.961  1.00  0.00     0.167 C 
BRANCH  18  19
ATOM     19  C13 UNK     1      -0.911  36.189 238.035  1.00  0.00     0.026 C 
BRANCH  19  20
ATOM     20  C16 UNK     1      -0.636  34.761 238.497  1.00  0.00    -0.002 C 
ATOM     21  C19 UNK     1       0.341  34.731 239.662  1.00  0.00     0.005 C 
ENDBRANCH  19  20
ENDBRANCH  18  19
ENDBRANCH  17  18
ENDBRANCH  16  17
ENDBRANCH  15  16
ENDBRANCH  14  15
ENDBRANCH  13  14
ENDBRANCH  12  13
ENDBRANCH  11  12
ENDBRANCH  10  11
ENDBRANCH   4  10
BRANCH   3  22
ATOM     22  C3  UNK     1       2.220  34.582 236.074  1.00  0.00     0.039 C 
BRANCH  22  23
ATOM     23  C5  UNK     1       3.082  33.434 236.615  1.00  0.00     0.000 C 
ATOM     24  C10 UNK     1       3.279  32.338 235.581  1.00  0.00     0.005 C 
ENDBRANCH  22  23
ENDBRANCH   3  22
TORSDOF 13
ENDMDL
MODEL 8
REMARK VINA RESULT:      -5.3      3.361      8.173
REMARK  13 active torsions:
REMARK  status: ('A' for Active; 'I' for Inactive)
REMARK    1  A    between atoms: O3_3  and  C7_12 
REMARK    2  A    between atoms: O3_3  and  C12_17 
REMARK    3  A    between atoms: O4_4  and  C14_19 
REMARK    4  A    between atoms: O4_4  and  C18_23 
REMARK    5  A    between atoms: O5_5  and  C15_20 
REMARK    6  A    between atoms: O5_5  and  C17_22 
REMARK    7  A    between atoms: C1_6  and  C3_8 
REMARK    8  A    between atoms: C2_7  and  C7_12 
REMARK    9  A    between atoms: C3_8  and  C5_10 
REMARK   10  A    between atoms: C12_17  and  C14_19 
REMARK   11  A    between atoms: C13_18  and  C15_20 
REMARK   12  A    between atoms: C13_18  and  C16_21 
REMARK   13  A    between atoms: C17_22  and  C18_23 
ROOT
ATOM      1  O1  UNK     1      -0.486  33.119 228.997  1.00  0.00    -0.323 OA
ATOM      2  O2  UNK     1      -1.882  34.471 227.573  1.00  0.00    -0.323 OA
ATOM      3  C1  UNK     1       0.273  36.378 230.502  1.00  0.00    -0.047 A 
ATOM      4  C2  UNK     1      -0.541  37.167 229.672  1.00  0.00    -0.025 A 
ATOM      5  C4  UNK     1       0.338  34.994 230.325  1.00  0.00     0.047 A 
ATOM      6  C6  UNK     1      -0.421  34.440 229.315  1.00  0.00     0.105 A 
ATOM      7  C8  UNK     1      -1.301  36.582 228.654  1.00  0.00     0.049 A 
ATOM      8  C9  UNK     1      -1.218  35.213 228.502  1.00  0.00     0.105 A 
ATOM      9  C11 UNK     1      -1.412  33.146 227.892  1.00  0.00     0.352 A 
ENDROOT
BRANCH   4  10
ATOM     10  C7  UNK     1      -0.612  38.648 229.859  1.00  0.00     0.207 C 
BRANCH  10  11
ATOM     11  O3  UNK     1      -1.679  38.960 230.743  1.00  0.00    -0.385 OA
BRANCH  11  12
ATOM     12  C12 UNK     1      -2.550  39.936 230.187  1.00  0.00     0.194 C 
BRANCH  12  13
ATOM     13  C14 UNK     1      -1.729  40.945 229.408  1.00  0.00     0.193 C 
BRANCH  13  14
ATOM     14  O4  UNK     1      -1.410  42.040 230.258  1.00  0.00    -0.387 OA
BRANCH  14  15
ATOM     15  C18 UNK     1      -0.495  42.933 229.638  1.00  0.00     0.193 C 
BRANCH  15  16
ATOM     16  C17 UNK     1       0.542  42.128 228.877  1.00  0.00     0.193 C 
BRANCH  16  17
ATOM     17  O5  UNK     1       1.101  42.941 227.854  1.00  0.00    -0.389 OA
BRANCH  17  18
ATOM     18  C15 UNK     1       2.489  43.162 228.065  1.00  0.00     0.167 C 
BRANCH  18  19
ATOM     19  C13 UNK     1       2.666  44.438 228.875  1.00  0.00     0.026 C 
BRANCH  19  20
ATOM     20  C16 UNK     1       3.388  44.174 230.193  1.00  0.00    -0.002 C 
ATOM     21  C19 UNK     1       4.698  43.436 229.972  1.00  0.00     0.005 C 
ENDBRANCH  19  20
ENDBRANCH  18  19
ENDBRANCH  17  18
ENDBRANCH  16  17
ENDBRANCH  15  16
ENDBRANCH  14  15
ENDBRANCH  13  14
ENDBRANCH  12  13
ENDBRANCH  11  12
ENDBRANCH  10  11
ENDBRANCH   4  10
BRANCH   3  22
ATOM     22  C3  UNK     1       1.087  37.004 231.587  1.00  0.00     0.039 C 
BRANCH  22  23
ATOM     23  C5  UNK     1       0.749  36.430 232.969  1.00  0.00     0.000 C 
ATOM     24  C10 UNK     1       1.166  37.369 234.089  1.00  0.00     0.005 C 
ENDBRANCH  22  23
ENDBRANCH   3  22
TORSDOF 13
ENDMDL
MODEL 9
REMARK VINA RESULT:      -5.3      4.755      9.667
REMARK  13 active torsions:
REMARK  status: ('A' for Active; 'I' for Inactive)
REMARK    1  A    between atoms: O3_3  and  C7_12 
REMARK    2  A    between atoms: O3_3  and  C12_17 
REMARK    3  A    between atoms: O4_4  and  C14_19 
REMARK    4  A    between atoms: O4_4  and  C18_23 
REMARK    5  A    between atoms: O5_5  and  C15_20 
REMARK    6  A    between atoms: O5_5  and  C17_22 
REMARK    7  A    between atoms: C1_6  and  C3_8 
REMARK    8  A    between atoms: C2_7  and  C7_12 
REMARK    9  A    between atoms: C3_8  and  C5_10 
REMARK   10  A    between atoms: C12_17  and  C14_19 
REMARK   11  A    between atoms: C13_18  and  C15_20 
REMARK   12  A    between atoms: C13_18  and  C16_21 
REMARK   13  A    between atoms: C17_22  and  C18_23 
ROOT
ATOM      1  O1  UNK     1       3.545  33.971 237.501  1.00  0.00    -0.323 OA
ATOM      2  O2  UNK     1       1.997  33.293 235.783  1.00  0.00    -0.323 OA
ATOM      3  C1  UNK     1       2.256  37.299 236.647  1.00  0.00    -0.047 A 
ATOM      4  C2  UNK     1       1.353  36.904 235.644  1.00  0.00    -0.025 A 
ATOM      5  C4  UNK     1       3.033  36.351 237.317  1.00  0.00     0.047 A 
ATOM      6  C6  UNK     1       2.878  35.028 236.960  1.00  0.00     0.105 A 
ATOM      7  C8  UNK     1       1.216  35.555 235.300  1.00  0.00     0.049 A 
ATOM      8  C9  UNK     1       1.995  34.641 235.978  1.00  0.00     0.105 A 
ATOM      9  C11 UNK     1       2.982  32.877 236.750  1.00  0.00     0.352 A 
ENDROOT
BRANCH   4  10
ATOM     10  C7  UNK     1       0.522  37.916 234.925  1.00  0.00     0.207 C 
BRANCH  10  11
ATOM     11  O3  UNK     1      -0.836  37.772 235.316  1.00  0.00    -0.385 OA
BRANCH  11  12
ATOM     12  C12 UNK     1      -1.686  37.582 234.193  1.00  0.00     0.194 C 
BRANCH  12  13
ATOM     13  C14 UNK     1      -1.906  38.917 233.508  1.00  0.00     0.193 C 
BRANCH  13  14
ATOM     14  O4  UNK     1      -1.692  38.762 232.110  1.00  0.00    -0.387 OA
BRANCH  14  15
ATOM     15  C18 UNK     1      -2.918  38.599 231.410  1.00  0.00     0.193 C 
BRANCH  15  16
ATOM     16  C17 UNK     1      -2.898  37.271 230.679  1.00  0.00     0.193 C 
BRANCH  16  17
ATOM     17  O5  UNK     1      -1.935  37.330 229.634  1.00  0.00    -0.389 OA
BRANCH  17  18
ATOM     18  C15 UNK     1      -1.006  36.259 229.722  1.00  0.00     0.167 C 
BRANCH  18  19
ATOM     19  C13 UNK     1       0.374  36.829 230.021  1.00  0.00     0.026 C 
BRANCH  19  20
ATOM     20  C16 UNK     1       0.861  36.425 231.410  1.00  0.00    -0.002 C 
ATOM     21  C19 UNK     1       0.119  35.204 231.927  1.00  0.00     0.005 C 
ENDBRANCH  19  20
ENDBRANCH  18  19
ENDBRANCH  17  18
ENDBRANCH  16  17
ENDBRANCH  15  16
ENDBRANCH  14  15
ENDBRANCH  13  14
ENDBRANCH  12  13
ENDBRANCH  11  12
ENDBRANCH  10  11
ENDBRANCH   4  10
BRANCH   3  22
ATOM     22  C3  UNK     1       2.404  38.740 237.012  1.00  0.00     0.039 C 
BRANCH  22  23
ATOM     23  C5  UNK     1       1.844  39.044 238.407  1.00  0.00     0.000 C 
ATOM     24  C10 UNK     1       0.423  39.580 238.341  1.00  0.00     0.005 C 
ENDBRANCH  22  23
ENDBRANCH   3  22
TORSDOF 13
ENDMDL
