MODEL 1
REMARK VINA RESULT:      -7.5      0.000      0.000
REMARK  1 active torsions:
REMARK  status: ('A' for Active; 'I' for Inactive)
REMARK    1  A    between atoms: O2_2  and  C18_20 
ROOT
ATOM      1  O1  UNK     1      -1.913  36.065 231.382  1.00  0.00    -0.297 OA
ATOM      2  C1  UNK     1       0.231  35.354 234.021  1.00  0.00     0.006 C 
ATOM      3  C2  UNK     1      -0.078  36.412 232.941  1.00  0.00     0.021 C 
ATOM      4  C3  UNK     1       1.338  35.829 234.960  1.00  0.00    -0.000 C 
ATOM      5  C4  UNK     1       0.833  37.105 235.703  1.00  0.00     0.024 C 
ATOM      6  C5  UNK     1      -0.645  37.642 233.640  1.00  0.00     0.018 C 
ATOM      7  C6  UNK     1       0.395  34.057 233.237  1.00  0.00     0.013 C 
ATOM      8  C7  UNK     1       0.331  38.183 234.702  1.00  0.00     0.011 C 
ATOM      9  C8  UNK     1       1.733  34.776 235.995  1.00  0.00     0.010 C 
ATOM     10  C9  UNK     1      -1.047  35.593 232.106  1.00  0.00     0.135 C 
ATOM     11  C10 UNK     1      -0.784  34.104 232.254  1.00  0.00     0.079 C 
ATOM     12  C11 UNK     1       1.090  36.791 232.011  1.00  0.00     0.024 C 
ATOM     13  C12 UNK     1       1.860  37.595 236.720  1.00  0.00    -0.047 A 
ATOM     14  C13 UNK     1       2.926  35.269 236.807  1.00  0.00     0.039 C 
ATOM     15  C14 UNK     1       2.812  36.703 237.263  1.00  0.00    -0.049 A 
ATOM     16  C15 UNK     1       1.830  38.914 237.209  1.00  0.00     0.011 A 
ATOM     17  C16 UNK     1       3.728  37.159 238.227  1.00  0.00     0.044 A 
ATOM     18  C17 UNK     1       2.741  39.351 238.173  1.00  0.00     0.037 A 
ATOM     19  C18 UNK     1       3.693  38.476 238.679  1.00  0.00     0.066 A 
ENDROOT
BRANCH  19  20
ATOM     20  O2  UNK     1       4.583  38.901 239.615  1.00  0.00    -0.361 OA
ATOM     21  H22 UNK     1       4.454  39.854 239.764  1.00  0.00     0.217 HD
ENDBRANCH  19  20
TORSDOF 1
ENDMDL
MODEL 2
REMARK VINA RESULT:      -6.9      2.294      6.480
REMARK  1 active torsions:
REMARK  status: ('A' for Active; 'I' for Inactive)
REMARK    1  A    between atoms: O2_2  and  C18_20 
ROOT
ATOM      1  O1  UNK     1       2.849  38.916 239.896  1.00  0.00    -0.297 OA
ATOM      2  C1  UNK     1       1.147  37.173 237.420  1.00  0.00     0.006 C 
ATOM      3  C2  UNK     1       2.562  37.482 237.952  1.00  0.00     0.021 C 
ATOM      4  C3  UNK     1       1.195  36.163 236.275  1.00  0.00    -0.000 C 
ATOM      5  C4  UNK     1       1.774  34.824 236.831  1.00  0.00     0.024 C 
ATOM      6  C5  UNK     1       3.118  36.203 238.569  1.00  0.00     0.018 C 
ATOM      7  C6  UNK     1       0.522  38.547 237.203  1.00  0.00     0.013 C 
ATOM      8  C7  UNK     1       3.134  35.050 237.548  1.00  0.00     0.011 C 
ATOM      9  C8  UNK     1      -0.179  35.892 235.663  1.00  0.00     0.010 C 
ATOM     10  C9  UNK     1       2.194  38.599 238.912  1.00  0.00     0.135 C 
ATOM     11  C10 UNK     1       0.920  39.304 238.478  1.00  0.00     0.079 C 
ATOM     12  C11 UNK     1       3.552  38.084 236.937  1.00  0.00     0.024 C 
ATOM     13  C12 UNK     1       1.779  33.738 235.759  1.00  0.00    -0.047 A 
ATOM     14  C13 UNK     1      -0.035  34.980 234.449  1.00  0.00     0.039 C 
ATOM     15  C14 UNK     1       0.888  33.806 234.666  1.00  0.00    -0.049 A 
ATOM     16  C15 UNK     1       2.602  32.602 235.877  1.00  0.00     0.011 A 
ATOM     17  C16 UNK     1       0.878  32.779 233.705  1.00  0.00     0.044 A 
ATOM     18  C17 UNK     1       2.576  31.586 234.919  1.00  0.00     0.037 A 
ATOM     19  C18 UNK     1       1.718  31.675 233.831  1.00  0.00     0.066 A 
ENDROOT
BRANCH  19  20
ATOM     20  O2  UNK     1       1.694  30.688 232.897  1.00  0.00    -0.361 OA
ATOM     21  H22 UNK     1       2.450  30.805 232.295  1.00  0.00     0.217 HD
ENDBRANCH  19  20
TORSDOF 1
ENDMDL
MODEL 3
REMARK VINA RESULT:      -6.8      1.238      6.656
REMARK  1 active torsions:
REMARK  status: ('A' for Active; 'I' for Inactive)
REMARK    1  A    between atoms: O2_2  and  C18_20 
ROOT
ATOM      1  O1  UNK     1       2.973  37.132 239.891  1.00  0.00    -0.297 OA
ATOM      2  C1  UNK     1       1.569  37.547 236.740  1.00  0.00     0.006 C 
ATOM      3  C2  UNK     1       2.586  36.695 237.529  1.00  0.00     0.021 C 
ATOM      4  C3  UNK     1       1.398  37.025 235.315  1.00  0.00    -0.000 C 
ATOM      5  C4  UNK     1       0.817  35.578 235.392  1.00  0.00     0.024 C 
ATOM      6  C5  UNK     1       2.002  35.295 237.682  1.00  0.00     0.018 C 
ATOM      7  C6  UNK     1       2.020  38.983 236.980  1.00  0.00     0.013 C 
ATOM      8  C7  UNK     1       1.679  34.670 236.312  1.00  0.00     0.011 C 
ATOM      9  C8  UNK     1       0.461  37.891 234.472  1.00  0.00     0.010 C 
ATOM     10  C9  UNK     1       2.656  37.547 238.784  1.00  0.00     0.135 C 
ATOM     11  C10 UNK     1       2.315  38.998 238.487  1.00  0.00     0.079 C 
ATOM     12  C11 UNK     1       4.014  36.641 236.955  1.00  0.00     0.024 C 
ATOM     13  C12 UNK     1       0.543  35.018 234.000  1.00  0.00    -0.047 A 
ATOM     14  C13 UNK     1       0.442  37.386 233.033  1.00  0.00     0.039 C 
ATOM     15  C14 UNK     1       0.326  35.886 232.908  1.00  0.00    -0.049 A 
ATOM     16  C15 UNK     1       0.412  33.633 233.785  1.00  0.00     0.011 A 
ATOM     17  C16 UNK     1       0.038  35.356 231.638  1.00  0.00     0.044 A 
ATOM     18  C17 UNK     1       0.119  33.121 232.519  1.00  0.00     0.037 A 
ATOM     19  C18 UNK     1      -0.064  33.981 231.444  1.00  0.00     0.066 A 
ENDROOT
BRANCH  19  20
ATOM     20  O2  UNK     1      -0.347  33.483 230.211  1.00  0.00    -0.361 OA
ATOM     21  H22 UNK     1      -1.310  33.373 230.128  1.00  0.00     0.217 HD
ENDBRANCH  19  20
TORSDOF 1
ENDMDL
MODEL 4
REMARK VINA RESULT:      -6.8      1.357      6.234
REMARK  1 active torsions:
REMARK  status: ('A' for Active; 'I' for Inactive)
REMARK    1  A    between atoms: O2_2  and  C18_20 
ROOT
ATOM      1  O1  UNK     1       2.873  38.859 239.544  1.00  0.00    -0.297 OA
ATOM      2  C1  UNK     1       1.957  36.299 237.381  1.00  0.00     0.006 C 
ATOM      3  C2  UNK     1       1.670  37.775 237.728  1.00  0.00     0.021 C 
ATOM      4  C3  UNK     1       1.182  35.862 236.140  1.00  0.00    -0.000 C 
ATOM      5  C4  UNK     1       1.674  36.719 234.931  1.00  0.00     0.024 C 
ATOM      6  C5  UNK     1       2.211  38.637 236.593  1.00  0.00     0.018 C 
ATOM      7  C6  UNK     1       1.768  35.562 238.701  1.00  0.00     0.013 C 
ATOM      8  C7  UNK     1       1.588  38.239 235.242  1.00  0.00     0.011 C 
ATOM      9  C8  UNK     1       1.374  34.382 235.809  1.00  0.00     0.010 C 
ATOM     10  C9  UNK     1       2.416  37.837 239.049  1.00  0.00     0.135 C 
ATOM     11  C10 UNK     1       2.498  36.468 239.703  1.00  0.00     0.079 C 
ATOM     12  C11 UNK     1       0.202  38.124 238.038  1.00  0.00     0.024 C 
ATOM     13  C12 UNK     1       0.997  36.284 233.634  1.00  0.00    -0.047 A 
ATOM     14  C13 UNK     1       0.472  33.990 234.643  1.00  0.00     0.039 C 
ATOM     15  C14 UNK     1       0.476  34.978 233.502  1.00  0.00    -0.049 A 
ATOM     16  C15 UNK     1       0.956  37.133 232.514  1.00  0.00     0.011 A 
ATOM     17  C16 UNK     1      -0.112  34.578 232.289  1.00  0.00     0.044 A 
ATOM     18  C17 UNK     1       0.376  36.720 231.312  1.00  0.00     0.037 A 
ATOM     19  C18 UNK     1      -0.161  35.445 231.200  1.00  0.00     0.066 A 
ENDROOT
BRANCH  19  20
ATOM     20  O2  UNK     1      -0.729  35.043 230.031  1.00  0.00    -0.361 OA
ATOM     21  H22 UNK     1      -1.455  35.651 229.807  1.00  0.00     0.217 HD
ENDBRANCH  19  20
TORSDOF 1
ENDMDL
MODEL 5
REMARK VINA RESULT:      -6.7      1.442      2.819
REMARK  1 active torsions:
REMARK  status: ('A' for Active; 'I' for Inactive)
REMARK    1  A    between atoms: O2_2  and  C18_20 
ROOT
ATOM      1  O1  UNK     1      -0.021  32.556 232.611  1.00  0.00    -0.297 OA
ATOM      2  C1  UNK     1       0.913  35.625 233.942  1.00  0.00     0.006 C 
ATOM      3  C2  UNK     1       0.278  34.268 234.313  1.00  0.00     0.021 C 
ATOM      4  C3  UNK     1       1.113  36.498 235.180  1.00  0.00    -0.000 C 
ATOM      5  C4  UNK     1       2.114  35.771 236.132  1.00  0.00     0.024 C 
ATOM      6  C5  UNK     1       1.273  33.508 235.182  1.00  0.00     0.018 C 
ATOM      7  C6  UNK     1       0.065  36.129 232.780  1.00  0.00     0.013 C 
ATOM      8  C7  UNK     1       1.654  34.318 236.436  1.00  0.00     0.011 C 
ATOM      9  C8  UNK     1       1.663  37.885 234.847  1.00  0.00     0.010 C 
ATOM     10  C9  UNK     1       0.057  33.740 232.906  1.00  0.00     0.135 C 
ATOM     11  C10 UNK     1      -0.089  34.875 231.906  1.00  0.00     0.079 C 
ATOM     12  C11 UNK     1      -1.109  34.329 234.981  1.00  0.00     0.024 C 
ATOM     13  C12 UNK     1       2.426  36.622 237.360  1.00  0.00    -0.047 A 
ATOM     14  C13 UNK     1       1.713  38.739 236.110  1.00  0.00     0.039 C 
ATOM     15  C14 UNK     1       2.272  38.026 237.316  1.00  0.00    -0.049 A 
ATOM     16  C15 UNK     1       2.956  36.047 238.529  1.00  0.00     0.011 A 
ATOM     17  C16 UNK     1       2.598  38.801 238.443  1.00  0.00     0.044 A 
ATOM     18  C17 UNK     1       3.283  36.831 239.638  1.00  0.00     0.037 A 
ATOM     19  C18 UNK     1       3.100  38.207 239.598  1.00  0.00     0.066 A 
ENDROOT
BRANCH  19  20
ATOM     20  O2  UNK     1       3.415  38.970 240.678  1.00  0.00    -0.361 OA
ATOM     21  H22 UNK     1       2.614  39.104 241.214  1.00  0.00     0.217 HD
ENDBRANCH  19  20
TORSDOF 1
ENDMDL
MODEL 6
REMARK VINA RESULT:      -6.5      3.353      5.625
REMARK  1 active torsions:
REMARK  status: ('A' for Active; 'I' for Inactive)
REMARK    1  A    between atoms: O2_2  and  C18_20 
ROOT
ATOM      1  O1  UNK     1       1.018  39.524 237.480  1.00  0.00    -0.297 OA
ATOM      2  C1  UNK     1       1.608  36.262 236.442  1.00  0.00     0.006 C 
ATOM      3  C2  UNK     1       2.211  37.413 237.274  1.00  0.00     0.021 C 
ATOM      4  C3  UNK     1       2.461  34.999 236.547  1.00  0.00    -0.000 C 
ATOM      5  C4  UNK     1       2.460  34.533 238.037  1.00  0.00     0.024 C 
ATOM      6  C5  UNK     1       2.150  37.010 238.743  1.00  0.00     0.018 C 
ATOM      7  C6  UNK     1       1.334  36.889 235.080  1.00  0.00     0.013 C 
ATOM      8  C7  UNK     1       2.891  35.682 238.990  1.00  0.00     0.011 C 
ATOM      9  C8  UNK     1       1.944  33.857 235.671  1.00  0.00     0.010 C 
ATOM     10  C9  UNK     1       1.269  38.518 236.829  1.00  0.00     0.135 C 
ATOM     11  C10 UNK     1       0.697  38.236 235.450  1.00  0.00     0.079 C 
ATOM     12  C11 UNK     1       3.630  37.862 236.880  1.00  0.00     0.024 C 
ATOM     13  C12 UNK     1       3.230  33.227 238.208  1.00  0.00    -0.047 A 
ATOM     14  C13 UNK     1       2.914  32.681 235.727  1.00  0.00     0.039 C 
ATOM     15  C14 UNK     1       3.396  32.345 237.117  1.00  0.00    -0.049 A 
ATOM     16  C15 UNK     1       3.714  32.826 239.467  1.00  0.00     0.011 A 
ATOM     17  C16 UNK     1       4.076  31.128 237.298  1.00  0.00     0.044 A 
ATOM     18  C17 UNK     1       4.380  31.610 239.634  1.00  0.00     0.037 A 
ATOM     19  C18 UNK     1       4.566  30.762 238.549  1.00  0.00     0.066 A 
ENDROOT
BRANCH  19  20
ATOM     20  O2  UNK     1       5.217  29.580 238.710  1.00  0.00    -0.361 OA
ATOM     21  H22 UNK     1       5.978  29.553 238.103  1.00  0.00     0.217 HD
ENDBRANCH  19  20
TORSDOF 1
ENDMDL
MODEL 7
REMARK VINA RESULT:      -6.5      2.202      6.429
REMARK  1 active torsions:
REMARK  status: ('A' for Active; 'I' for Inactive)
REMARK    1  A    between atoms: O2_2  and  C18_20 
ROOT
ATOM      1  O1  UNK     1       1.484  33.361 239.611  1.00  0.00    -0.297 OA
ATOM      2  C1  UNK     1       1.303  35.730 237.076  1.00  0.00     0.006 C 
ATOM      3  C2  UNK     1       1.762  34.287 237.378  1.00  0.00     0.021 C 
ATOM      4  C3  UNK     1       1.461  36.061 235.594  1.00  0.00    -0.000 C 
ATOM      5  C4  UNK     1       0.531  35.107 234.779  1.00  0.00     0.024 C 
ATOM      6  C5  UNK     1       0.819  33.335 236.652  1.00  0.00     0.018 C 
ATOM      7  C6  UNK     1       2.011  36.575 238.129  1.00  0.00     0.013 C 
ATOM      8  C7  UNK     1       0.794  33.618 235.138  1.00  0.00     0.011 C 
ATOM      9  C8  UNK     1       1.095  37.509 235.265  1.00  0.00     0.010 C 
ATOM     10  C9  UNK     1       1.651  34.337 238.892  1.00  0.00     0.135 C 
ATOM     11  C10 UNK     1       1.808  35.756 239.412  1.00  0.00     0.079 C 
ATOM     12  C11 UNK     1       3.233  33.964 237.057  1.00  0.00     0.024 C 
ATOM     13  C12 UNK     1       0.576  35.432 233.289  1.00  0.00    -0.047 A 
ATOM     14  C13 UNK     1       1.401  37.801 233.799  1.00  0.00     0.039 C 
ATOM     15  C14 UNK     1       0.946  36.721 232.848  1.00  0.00    -0.049 A 
ATOM     16  C15 UNK     1       0.166  34.492 232.326  1.00  0.00     0.011 A 
ATOM     17  C16 UNK     1       0.947  37.018 231.473  1.00  0.00     0.044 A 
ATOM     18  C17 UNK     1       0.163  34.802 230.964  1.00  0.00     0.037 A 
ATOM     19  C18 UNK     1       0.558  36.063 230.537  1.00  0.00     0.066 A 
ENDROOT
BRANCH  19  20
ATOM     20  O2  UNK     1       0.560  36.366 229.211  1.00  0.00    -0.361 OA
ATOM     21  H22 UNK     1       1.175  35.768 228.752  1.00  0.00     0.217 HD
ENDBRANCH  19  20
TORSDOF 1
ENDMDL
MODEL 8
REMARK VINA RESULT:      -6.1      1.893      3.406
REMARK  1 active torsions:
REMARK  status: ('A' for Active; 'I' for Inactive)
REMARK    1  A    between atoms: O2_2  and  C18_20 
ROOT
ATOM      1  O1  UNK     1      -0.585  33.737 229.263  1.00  0.00    -0.297 OA
ATOM      2  C1  UNK     1       0.580  35.904 231.716  1.00  0.00     0.006 C 
ATOM      3  C2  UNK     1      -0.461  34.797 231.450  1.00  0.00     0.021 C 
ATOM      4  C3  UNK     1       0.561  36.341 233.179  1.00  0.00    -0.000 C 
ATOM      5  C4  UNK     1       0.964  35.116 234.059  1.00  0.00     0.024 C 
ATOM      6  C5  UNK     1      -0.045  33.563 232.242  1.00  0.00     0.018 C 
ATOM      7  C6  UNK     1       0.333  36.923 230.609  1.00  0.00     0.013 C 
ATOM      8  C7  UNK     1       0.079  33.878 233.745  1.00  0.00     0.011 C 
ATOM      9  C8  UNK     1       1.521  37.496 233.468  1.00  0.00     0.010 C 
ATOM     10  C9  UNK     1      -0.317  34.721 229.940  1.00  0.00     0.135 C 
ATOM     11  C10 UNK     1       0.175  36.038 229.364  1.00  0.00     0.079 C 
ATOM     12  C11 UNK     1      -1.930  35.168 231.731  1.00  0.00     0.024 C 
ATOM     13  C12 UNK     1       1.044  35.498 235.534  1.00  0.00    -0.047 A 
ATOM     14  C13 UNK     1       1.353  37.961 234.911  1.00  0.00     0.039 C 
ATOM     15  C14 UNK     1       1.272  36.839 235.916  1.00  0.00    -0.049 A 
ATOM     16  C15 UNK     1       0.983  34.520 236.544  1.00  0.00     0.011 A 
ATOM     17  C16 UNK     1       1.380  37.171 237.278  1.00  0.00     0.044 A 
ATOM     18  C17 UNK     1       1.100  34.863 237.893  1.00  0.00     0.037 A 
ATOM     19  C18 UNK     1       1.294  36.188 238.261  1.00  0.00     0.066 A 
ENDROOT
BRANCH  19  20
ATOM     20  O2  UNK     1       1.405  36.523 239.574  1.00  0.00    -0.361 OA
ATOM     21  H22 UNK     1       2.250  36.986 239.712  1.00  0.00     0.217 HD
ENDBRANCH  19  20
TORSDOF 1
ENDMDL
MODEL 9
REMARK VINA RESULT:      -6.0      1.583      2.020
REMARK  1 active torsions:
REMARK  status: ('A' for Active; 'I' for Inactive)
REMARK    1  A    between atoms: O2_2  and  C18_20 
ROOT
ATOM      1  O1  UNK     1      -2.216  32.676 233.007  1.00  0.00    -0.297 OA
ATOM      2  C1  UNK     1       0.498  33.464 235.027  1.00  0.00     0.006 C 
ATOM      3  C2  UNK     1      -0.399  34.023 233.902  1.00  0.00     0.021 C 
ATOM      4  C3  UNK     1       1.491  34.517 235.517  1.00  0.00    -0.000 C 
ATOM      5  C4  UNK     1       0.681  35.704 236.126  1.00  0.00     0.024 C 
ATOM      6  C5  UNK     1      -1.255  35.136 234.496  1.00  0.00     0.018 C 
ATOM      7  C6  UNK     1       1.001  32.134 234.478  1.00  0.00     0.013 C 
ATOM      8  C7  UNK     1      -0.382  36.238 235.127  1.00  0.00     0.011 C 
ATOM      9  C8  UNK     1       2.455  33.979 236.574  1.00  0.00     0.010 C 
ATOM     10  C9  UNK     1      -1.113  32.735 233.533  1.00  0.00     0.135 C 
ATOM     11  C10 UNK     1      -0.268  31.518 233.871  1.00  0.00     0.079 C 
ATOM     12  C11 UNK     1       0.328  34.501 232.631  1.00  0.00     0.024 C 
ATOM     13  C12 UNK     1       1.611  36.764 236.711  1.00  0.00    -0.047 A 
ATOM     14  C13 UNK     1       3.494  35.042 236.918  1.00  0.00     0.039 C 
ATOM     15  C14 UNK     1       2.919  36.423 237.119  1.00  0.00    -0.049 A 
ATOM     16  C15 UNK     1       1.164  38.078 236.940  1.00  0.00     0.011 A 
ATOM     17  C16 UNK     1       3.752  37.401 237.690  1.00  0.00     0.044 A 
ATOM     18  C17 UNK     1       2.000  39.038 237.515  1.00  0.00     0.037 A 
ATOM     19  C18 UNK     1       3.295  38.702 237.886  1.00  0.00     0.066 A 
ENDROOT
BRANCH  19  20
ATOM     20  O2  UNK     1       4.111  39.636 238.443  1.00  0.00    -0.361 OA
ATOM     21  H22 UNK     1       4.932  39.688 237.924  1.00  0.00     0.217 HD
ENDBRANCH  19  20
TORSDOF 1
ENDMDL
