MODEL 1
REMARK VINA RESULT:      -7.2      0.000      0.000
REMARK  2 active torsions:
REMARK  status: ('A' for Active; 'I' for Inactive)
REMARK    1  A    between atoms: C8_8  and  O2_11 
REMARK    2  A    between atoms: O1_10  and  C16_19 
ROOT
ATOM      1  C1  UNK     1       1.921  35.473 236.050  1.00  0.00    -0.014 A 
ATOM      2  C2  UNK     1       2.055  37.804 236.468  1.00  0.00    -0.042 A 
ATOM      3  C3  UNK     1       2.415  36.544 236.852  1.00  0.00     0.017 A 
ATOM      4  C4  UNK     1      -1.216  38.458 233.521  1.00  0.00     0.144 C 
ATOM      5  C5  UNK     1       0.932  33.345 234.438  1.00  0.00     0.008 A 
ATOM      6  C6  UNK     1       2.251  34.160 236.359  1.00  0.00     0.013 A 
ATOM      7  C7  UNK     1       2.465  38.958 237.157  1.00  0.00     0.011 A 
ATOM      8  C8  UNK     1       3.651  37.598 238.684  1.00  0.00     0.099 A 
ATOM      9  C9  UNK     1       3.268  38.851 238.275  1.00  0.00     0.040 A 
ATOM     10  N1  UNK     1      -0.507  37.213 233.751  1.00  0.00    -0.408 N 
ATOM     11  C10 UNK     1       0.694  37.045 234.542  1.00  0.00     0.117 A 
ATOM     12  C11 UNK     1       1.090  35.673 234.924  1.00  0.00    -0.018 A 
ATOM     13  C12 UNK     1       1.221  38.186 235.343  1.00  0.00     0.069 A 
ATOM     14  C13 UNK     1       0.627  34.675 234.170  1.00  0.00    -0.047 A 
ATOM     15  C14 UNK     1      -1.122  36.053 233.072  1.00  0.00     0.121 C 
ATOM     16  C15 UNK     1      -0.260  34.766 232.965  1.00  0.00     0.058 C 
ATOM     17  C16 UNK     1       3.247  36.453 238.011  1.00  0.00     0.110 A 
ATOM     18  C17 UNK     1       1.759  33.103 235.563  1.00  0.00     0.001 A 
ENDROOT
BRANCH   8  19
ATOM     19  O2  UNK     1       4.445  37.445 239.810  1.00  0.00    -0.358 OA
ATOM     20  H9  UNK     1       4.719  38.298 240.123  1.00  0.00     0.218 HD
ENDBRANCH   8  19
BRANCH  17  21
ATOM     21  O1  UNK     1       3.726  35.292 238.588  1.00  0.00    -0.357 OA
ATOM     22  H8  UNK     1       3.508  35.284 239.513  1.00  0.00     0.218 HD
ENDBRANCH  17  21
TORSDOF 2
ENDMDL
MODEL 2
REMARK VINA RESULT:      -6.9      7.910     10.694
REMARK  2 active torsions:
REMARK  status: ('A' for Active; 'I' for Inactive)
REMARK    1  A    between atoms: C8_8  and  O2_11 
REMARK    2  A    between atoms: O1_10  and  C16_19 
ROOT
ATOM      1  C1  UNK     1      -2.444  42.077 227.747  1.00  0.00    -0.014 A 
ATOM      2  C2  UNK     1      -0.626  42.378 229.241  1.00  0.00    -0.042 A 
ATOM      3  C3  UNK     1      -1.225  42.744 228.070  1.00  0.00     0.017 A 
ATOM      4  C4  UNK     1      -1.869  38.688 231.398  1.00  0.00     0.144 C 
ATOM      5  C5  UNK     1      -4.878  40.743 227.118  1.00  0.00     0.008 A 
ATOM      6  C6  UNK     1      -3.128  42.399 226.582  1.00  0.00     0.013 A 
ATOM      7  C7  UNK     1       0.577  42.947 229.694  1.00  0.00     0.011 A 
ATOM      8  C8  UNK     1       0.629  44.314 227.767  1.00  0.00     0.099 A 
ATOM      9  C9  UNK     1       1.208  43.921 228.947  1.00  0.00     0.040 A 
ATOM     10  N1  UNK     1      -2.625  39.373 230.366  1.00  0.00    -0.408 N 
ATOM     11  C10 UNK     1      -2.337  40.682 229.819  1.00  0.00     0.117 A 
ATOM     12  C11 UNK     1      -3.015  41.078 228.567  1.00  0.00    -0.018 A 
ATOM     13  C12 UNK     1      -1.078  41.383 230.198  1.00  0.00     0.069 A 
ATOM     14  C13 UNK     1      -4.156  40.453 228.271  1.00  0.00    -0.047 A 
ATOM     15  C14 UNK     1      -3.793  38.603 229.887  1.00  0.00     0.121 C 
ATOM     16  C15 UNK     1      -4.850  39.380 229.055  1.00  0.00     0.058 C 
ATOM     17  C16 UNK     1      -0.556  43.755 227.311  1.00  0.00     0.110 A 
ATOM     18  C17 UNK     1      -4.333  41.736 226.267  1.00  0.00     0.001 A 
ENDROOT
BRANCH   8  19
ATOM     19  O2  UNK     1       1.238  45.279 226.979  1.00  0.00    -0.358 OA
ATOM     20  H9  UNK     1       1.900  45.733 227.488  1.00  0.00     0.218 HD
ENDBRANCH   8  19
BRANCH  17  21
ATOM     21  O1  UNK     1      -0.966  44.275 226.097  1.00  0.00    -0.357 OA
ATOM     22  H8  UNK     1      -0.483  43.856 225.394  1.00  0.00     0.218 HD
ENDBRANCH  17  21
TORSDOF 2
ENDMDL
MODEL 3
REMARK VINA RESULT:      -6.9      2.482      4.044
REMARK  2 active torsions:
REMARK  status: ('A' for Active; 'I' for Inactive)
REMARK    1  A    between atoms: C8_8  and  O2_11 
REMARK    2  A    between atoms: O1_10  and  C16_19 
ROOT
ATOM      1  C1  UNK     1       0.924  35.674 234.814  1.00  0.00    -0.014 A 
ATOM      2  C2  UNK     1       1.977  36.098 236.897  1.00  0.00    -0.042 A 
ATOM      3  C3  UNK     1       1.305  36.608 235.824  1.00  0.00     0.017 A 
ATOM      4  C4  UNK     1       3.708  32.000 236.786  1.00  0.00     0.144 C 
ATOM      5  C5  UNK     1       0.166  33.800 232.811  1.00  0.00     0.008 A 
ATOM      6  C6  UNK     1       0.223  36.104 233.695  1.00  0.00     0.013 A 
ATOM      7  C7  UNK     1       2.415  36.893 237.970  1.00  0.00     0.011 A 
ATOM      8  C8  UNK     1       1.495  38.794 236.909  1.00  0.00     0.099 A 
ATOM      9  C9  UNK     1       2.172  38.252 237.973  1.00  0.00     0.040 A 
ATOM     10  N1  UNK     1       2.698  32.527 235.888  1.00  0.00    -0.408 N 
ATOM     11  C10 UNK     1       1.975  33.771 236.048  1.00  0.00     0.117 A 
ATOM     12  C11 UNK     1       1.226  34.295 234.887  1.00  0.00    -0.018 A 
ATOM     13  C12 UNK     1       2.358  34.717 237.133  1.00  0.00     0.069 A 
ATOM     14  C13 UNK     1       0.870  33.419 233.947  1.00  0.00    -0.047 A 
ATOM     15  C14 UNK     1       2.427  31.650 234.729  1.00  0.00     0.121 C 
ATOM     16  C15 UNK     1       1.138  31.944 233.914  1.00  0.00     0.058 C 
ATOM     17  C16 UNK     1       1.062  38.017 235.844  1.00  0.00     0.110 A 
ATOM     18  C17 UNK     1      -0.150  35.177 232.698  1.00  0.00     0.001 A 
ENDROOT
BRANCH   8  19
ATOM     19  O2  UNK     1       1.244  40.157 236.865  1.00  0.00    -0.358 OA
ATOM     20  H9  UNK     1       1.093  40.423 235.965  1.00  0.00     0.218 HD
ENDBRANCH   8  19
BRANCH  17  21
ATOM     21  O1  UNK     1       0.414  38.752 234.869  1.00  0.00    -0.357 OA
ATOM     22  H8  UNK     1       0.688  38.451 234.010  1.00  0.00     0.218 HD
ENDBRANCH  17  21
TORSDOF 2
ENDMDL
MODEL 4
REMARK VINA RESULT:      -6.8      1.980      3.654
REMARK  2 active torsions:
REMARK  status: ('A' for Active; 'I' for Inactive)
REMARK    1  A    between atoms: C8_8  and  O2_11 
REMARK    2  A    between atoms: O1_10  and  C16_19 
ROOT
ATOM      1  C1  UNK     1       1.320  36.080 234.857  1.00  0.00    -0.014 A 
ATOM      2  C2  UNK     1       2.426  35.383 236.836  1.00  0.00    -0.042 A 
ATOM      3  C3  UNK     1       2.049  36.421 236.035  1.00  0.00     0.017 A 
ATOM      4  C4  UNK     1       2.244  31.180 235.383  1.00  0.00     0.144 C 
ATOM      5  C5  UNK     1      -0.139  35.385 232.514  1.00  0.00     0.008 A 
ATOM      6  C6  UNK     1       0.885  37.076 233.993  1.00  0.00     0.013 A 
ATOM      7  C7  UNK     1       3.147  35.562 238.029  1.00  0.00     0.011 A 
ATOM      8  C8  UNK     1       3.140  37.896 237.657  1.00  0.00     0.099 A 
ATOM      9  C9  UNK     1       3.507  36.830 238.439  1.00  0.00     0.040 A 
ATOM     10  N1  UNK     1       1.568  32.320 234.793  1.00  0.00    -0.408 N 
ATOM     11  C10 UNK     1       1.442  33.638 235.378  1.00  0.00     0.117 A 
ATOM     12  C11 UNK     1       1.004  34.748 234.506  1.00  0.00    -0.018 A 
ATOM     13  C12 UNK     1       2.178  33.967 236.631  1.00  0.00     0.069 A 
ATOM     14  C13 UNK     1       0.320  34.424 233.407  1.00  0.00    -0.047 A 
ATOM     15  C14 UNK     1       0.964  32.026 233.476  1.00  0.00     0.121 C 
ATOM     16  C15 UNK     1      -0.066  33.055 232.933  1.00  0.00     0.058 C 
ATOM     17  C16 UNK     1       2.431  37.727 236.476  1.00  0.00     0.110 A 
ATOM     18  C17 UNK     1       0.165  36.733 232.828  1.00  0.00     0.001 A 
ENDROOT
BRANCH   8  19
ATOM     19  O2  UNK     1       3.494  39.185 238.024  1.00  0.00    -0.358 OA
ATOM     20  H9  UNK     1       3.753  39.194 238.938  1.00  0.00     0.218 HD
ENDBRANCH   8  19
BRANCH  17  21
ATOM     21  O1  UNK     1       2.171  38.920 235.828  1.00  0.00    -0.357 OA
ATOM     22  H8  UNK     1       2.302  38.808 234.893  1.00  0.00     0.218 HD
ENDBRANCH  17  21
TORSDOF 2
ENDMDL
MODEL 5
REMARK VINA RESULT:      -6.5      3.053      6.077
REMARK  2 active torsions:
REMARK  status: ('A' for Active; 'I' for Inactive)
REMARK    1  A    between atoms: C8_8  and  O2_11 
REMARK    2  A    between atoms: O1_10  and  C16_19 
ROOT
ATOM      1  C1  UNK     1       1.094  37.649 236.470  1.00  0.00    -0.014 A 
ATOM      2  C2  UNK     1       1.125  35.631 235.223  1.00  0.00    -0.042 A 
ATOM      3  C3  UNK     1       0.697  36.925 235.307  1.00  0.00     0.017 A 
ATOM      4  C4  UNK     1       2.800  33.535 238.774  1.00  0.00     0.144 C 
ATOM      5  C5  UNK     1       1.896  39.083 238.795  1.00  0.00     0.008 A 
ATOM      6  C6  UNK     1       0.715  38.976 236.629  1.00  0.00     0.013 A 
ATOM      7  C7  UNK     1       0.817  34.794 234.137  1.00  0.00     0.011 A 
ATOM      8  C8  UNK     1      -0.391  36.566 233.143  1.00  0.00     0.099 A 
ATOM      9  C9  UNK     1       0.050  35.268 233.091  1.00  0.00     0.040 A 
ATOM     10  N1  UNK     1       2.639  34.969 238.623  1.00  0.00    -0.408 N 
ATOM     11  C10 UNK     1       2.304  35.670 237.402  1.00  0.00     0.117 A 
ATOM     12  C11 UNK     1       1.872  37.079 237.504  1.00  0.00    -0.018 A 
ATOM     13  C12 UNK     1       1.931  34.898 236.183  1.00  0.00     0.069 A 
ATOM     14  C13 UNK     1       2.247  37.753 238.592  1.00  0.00    -0.047 A 
ATOM     15  C14 UNK     1       2.865  35.720 239.877  1.00  0.00     0.121 C 
ATOM     16  C15 UNK     1       3.062  37.255 239.748  1.00  0.00     0.058 C 
ATOM     17  C16 UNK     1      -0.095  37.398 234.214  1.00  0.00     0.110 A 
ATOM     18  C17 UNK     1       1.109  39.687 237.783  1.00  0.00     0.001 A 
ENDROOT
BRANCH   8  19
ATOM     19  O2  UNK     1      -1.176  37.077 232.121  1.00  0.00    -0.358 OA
ATOM     20  H9  UNK     1      -0.881  37.952 231.901  1.00  0.00     0.218 HD
ENDBRANCH   8  19
BRANCH  17  21
ATOM     21  O1  UNK     1      -0.643  38.660 234.084  1.00  0.00    -0.357 OA
ATOM     22  H8  UNK     1      -1.529  38.588 233.746  1.00  0.00     0.218 HD
ENDBRANCH  17  21
TORSDOF 2
ENDMDL
MODEL 6
REMARK VINA RESULT:      -6.4      2.828      5.466
REMARK  2 active torsions:
REMARK  status: ('A' for Active; 'I' for Inactive)
REMARK    1  A    between atoms: C8_8  and  O2_11 
REMARK    2  A    between atoms: O1_10  and  C16_19 
ROOT
ATOM      1  C1  UNK     1       1.656  35.583 235.675  1.00  0.00    -0.014 A 
ATOM      2  C2  UNK     1       2.866  34.026 236.993  1.00  0.00    -0.042 A 
ATOM      3  C3  UNK     1       2.068  34.237 235.906  1.00  0.00     0.017 A 
ATOM      4  C4  UNK     1       3.340  37.146 240.131  1.00  0.00     0.144 C 
ATOM      5  C5  UNK     1       0.845  38.274 235.223  1.00  0.00     0.008 A 
ATOM      6  C6  UNK     1       0.854  35.890 234.583  1.00  0.00     0.013 A 
ATOM      7  C7  UNK     1       3.353  32.756 237.347  1.00  0.00     0.011 A 
ATOM      8  C8  UNK     1       2.231  31.831 235.484  1.00  0.00     0.099 A 
ATOM      9  C9  UNK     1       3.029  31.651 236.586  1.00  0.00     0.040 A 
ATOM     10  N1  UNK     1       2.826  37.351 238.791  1.00  0.00    -0.408 N 
ATOM     11  C10 UNK     1       2.872  36.400 237.700  1.00  0.00     0.117 A 
ATOM     12  C11 UNK     1       2.025  36.657 236.516  1.00  0.00    -0.018 A 
ATOM     13  C12 UNK     1       3.343  35.009 237.949  1.00  0.00     0.069 A 
ATOM     14  C13 UNK     1       1.645  37.917 236.303  1.00  0.00    -0.047 A 
ATOM     15  C14 UNK     1       2.223  38.687 238.592  1.00  0.00     0.121 C 
ATOM     16  C15 UNK     1       1.968  39.129 237.125  1.00  0.00     0.058 C 
ATOM     17  C16 UNK     1       1.743  33.080 235.129  1.00  0.00     0.110 A 
ATOM     18  C17 UNK     1       0.448  37.223 234.359  1.00  0.00     0.001 A 
ENDROOT
BRANCH   8  19
ATOM     19  O2  UNK     1       1.869  30.745 234.701  1.00  0.00    -0.358 OA
ATOM     20  H9  UNK     1       1.277  31.031 234.016  1.00  0.00     0.218 HD
ENDBRANCH   8  19
BRANCH  17  21
ATOM     21  O1  UNK     1       0.948  33.048 233.999  1.00  0.00    -0.357 OA
ATOM     22  H8  UNK     1       0.888  32.155 233.679  1.00  0.00     0.218 HD
ENDBRANCH  17  21
TORSDOF 2
ENDMDL
MODEL 7
REMARK VINA RESULT:      -6.2      2.827      5.323
REMARK  2 active torsions:
REMARK  status: ('A' for Active; 'I' for Inactive)
REMARK    1  A    between atoms: C8_8  and  O2_11 
REMARK    2  A    between atoms: O1_10  and  C16_19 
ROOT
ATOM      1  C1  UNK     1       1.437  36.019 235.570  1.00  0.00    -0.014 A 
ATOM      2  C2  UNK     1      -0.181  35.432 233.937  1.00  0.00    -0.042 A 
ATOM      3  C3  UNK     1       0.416  36.425 234.661  1.00  0.00     0.017 A 
ATOM      4  C4  UNK     1       0.342  31.154 235.046  1.00  0.00     0.144 C 
ATOM      5  C5  UNK     1       3.477  35.196 237.377  1.00  0.00     0.008 A 
ATOM      6  C6  UNK     1       2.107  36.965 236.335  1.00  0.00     0.013 A 
ATOM      7  C7  UNK     1      -1.200  35.678 233.002  1.00  0.00     0.011 A 
ATOM      8  C8  UNK     1      -1.061  37.986 233.488  1.00  0.00     0.099 A 
ATOM      9  C9  UNK     1      -1.643  36.966 232.779  1.00  0.00     0.040 A 
ATOM     10  N1  UNK     1       1.169  32.260 235.489  1.00  0.00    -0.408 N 
ATOM     11  C10 UNK     1       1.145  33.611 234.967  1.00  0.00     0.117 A 
ATOM     12  C11 UNK     1       1.821  34.670 235.745  1.00  0.00    -0.018 A 
ATOM     13  C12 UNK     1       0.096  34.008 233.987  1.00  0.00     0.069 A 
ATOM     14  C13 UNK     1       2.777  34.286 236.592  1.00  0.00    -0.047 A 
ATOM     15  C14 UNK     1       2.109  31.894 236.570  1.00  0.00     0.121 C 
ATOM     16  C15 UNK     1       3.262  32.893 236.864  1.00  0.00     0.058 C 
ATOM     17  C16 UNK     1      -0.056  37.753 234.416  1.00  0.00     0.110 A 
ATOM     18  C17 UNK     1       3.116  36.558 237.234  1.00  0.00     0.001 A 
ENDROOT
BRANCH   8  19
ATOM     19  O2  UNK     1      -1.487  39.293 233.306  1.00  0.00    -0.358 OA
ATOM     20  H9  UNK     1      -0.999  39.869 233.882  1.00  0.00     0.218 HD
ENDBRANCH   8  19
BRANCH  17  21
ATOM     21  O1  UNK     1       0.387  38.908 235.033  1.00  0.00    -0.357 OA
ATOM     22  H8  UNK     1      -0.300  39.253 235.591  1.00  0.00     0.218 HD
ENDBRANCH  17  21
TORSDOF 2
ENDMDL
MODEL 8
REMARK VINA RESULT:      -6.2      2.244      4.083
REMARK  2 active torsions:
REMARK  status: ('A' for Active; 'I' for Inactive)
REMARK    1  A    between atoms: C8_8  and  O2_11 
REMARK    2  A    between atoms: O1_10  and  C16_19 
ROOT
ATOM      1  C1  UNK     1       2.171  34.648 236.279  1.00  0.00    -0.014 A 
ATOM      2  C2  UNK     1       0.845  35.693 234.613  1.00  0.00    -0.042 A 
ATOM      3  C3  UNK     1       1.605  35.840 235.737  1.00  0.00     0.017 A 
ATOM      4  C4  UNK     1      -0.563  31.678 233.305  1.00  0.00     0.144 C 
ATOM      5  C5  UNK     1       3.299  32.263 237.346  1.00  0.00     0.008 A 
ATOM      6  C6  UNK     1       2.970  34.709 237.413  1.00  0.00     0.013 A 
ATOM      7  C7  UNK     1       0.224  36.774 233.964  1.00  0.00     0.011 A 
ATOM      8  C8  UNK     1       1.129  38.237 235.585  1.00  0.00     0.099 A 
ATOM      9  C9  UNK     1       0.367  38.055 234.458  1.00  0.00     0.040 A 
ATOM     10  N1  UNK     1       0.509  31.946 234.245  1.00  0.00    -0.408 N 
ATOM     11  C10 UNK     1       1.117  33.233 234.509  1.00  0.00     0.117 A 
ATOM     12  C11 UNK     1       1.962  33.370 235.713  1.00  0.00    -0.018 A 
ATOM     13  C12 UNK     1       0.537  34.464 233.903  1.00  0.00     0.069 A 
ATOM     14  C13 UNK     1       2.491  32.253 236.215  1.00  0.00    -0.047 A 
ATOM     15  C14 UNK     1       0.980  30.737 234.956  1.00  0.00     0.121 C 
ATOM     16  C15 UNK     1       2.335  30.851 235.708  1.00  0.00     0.058 C 
ATOM     17  C16 UNK     1       1.742  37.175 236.234  1.00  0.00     0.110 A 
ATOM     18  C17 UNK     1       3.527  33.527 237.946  1.00  0.00     0.001 A 
ENDROOT
BRANCH   8  19
ATOM     19  O2  UNK     1       1.286  39.505 236.123  1.00  0.00    -0.358 OA
ATOM     20  H9  UNK     1       0.439  39.846 236.385  1.00  0.00     0.218 HD
ENDBRANCH   8  19
BRANCH  17  21
ATOM     21  O1  UNK     1       2.450  37.564 237.355  1.00  0.00    -0.357 OA
ATOM     22  H8  UNK     1       1.966  38.239 237.817  1.00  0.00     0.218 HD
ENDBRANCH  17  21
TORSDOF 2
ENDMDL
MODEL 9
REMARK VINA RESULT:      -6.1      1.540      3.874
REMARK  2 active torsions:
REMARK  status: ('A' for Active; 'I' for Inactive)
REMARK    1  A    between atoms: C8_8  and  O2_11 
REMARK    2  A    between atoms: O1_10  and  C16_19 
ROOT
ATOM      1  C1  UNK     1       1.888  35.733 235.946  1.00  0.00    -0.014 A 
ATOM      2  C2  UNK     1       1.822  33.368 236.123  1.00  0.00    -0.042 A 
ATOM      3  C3  UNK     1       2.294  34.546 236.626  1.00  0.00     0.017 A 
ATOM      4  C4  UNK     1      -0.040  33.180 232.084  1.00  0.00     0.144 C 
ATOM      5  C5  UNK     1       1.066  38.092 234.583  1.00  0.00     0.008 A 
ATOM      6  C6  UNK     1       2.309  36.975 236.400  1.00  0.00     0.013 A 
ATOM      7  C7  UNK     1       2.133  32.118 236.686  1.00  0.00     0.011 A 
ATOM      8  C8  UNK     1       3.436  33.208 238.329  1.00  0.00     0.099 A 
ATOM      9  C9  UNK     1       2.949  32.041 237.797  1.00  0.00     0.040 A 
ATOM     10  N1  UNK     1       0.179  34.379 232.872  1.00  0.00    -0.408 N 
ATOM     11  C10 UNK     1       0.577  34.430 234.263  1.00  0.00     0.117 A 
ATOM     12  C11 UNK     1       1.057  35.719 234.803  1.00  0.00    -0.018 A 
ATOM     13  C12 UNK     1       0.959  33.176 234.971  1.00  0.00     0.069 A 
ATOM     14  C13 UNK     1       0.673  36.826 234.165  1.00  0.00    -0.047 A 
ATOM     15  C14 UNK     1      -0.059  35.628 232.117  1.00  0.00     0.121 C 
ATOM     16  C15 UNK     1      -0.196  36.933 232.948  1.00  0.00     0.058 C 
ATOM     17  C16 UNK     1       3.137  34.446 237.777  1.00  0.00     0.110 A 
ATOM     18  C17 UNK     1       1.906  38.146 235.723  1.00  0.00     0.001 A 
ENDROOT
BRANCH   8  19
ATOM     19  O2  UNK     1       4.271  33.175 239.435  1.00  0.00    -0.358 OA
ATOM     20  H9  UNK     1       4.838  32.414 239.382  1.00  0.00     0.218 HD
ENDBRANCH   8  19
BRANCH  17  21
ATOM     21  O1  UNK     1       3.735  35.495 238.449  1.00  0.00    -0.357 OA
ATOM     22  H8  UNK     1       4.511  35.773 237.977  1.00  0.00     0.218 HD
ENDBRANCH  17  21
TORSDOF 2
ENDMDL
