MODEL 1
REMARK VINA RESULT:      -5.9      0.000      0.000
REMARK  5 active torsions:
REMARK  status: ('A' for Active; 'I' for Inactive)
REMARK    1  A    between atoms: O1_1  and  C1_4 
REMARK    2  A    between atoms: O2_2  and  C6_9 
REMARK    3  A    between atoms: N1_3  and  C2_5 
REMARK    4  A    between atoms: C1_4  and  C2_5 
REMARK    5  A    between atoms: C1_4  and  C3_6 
ROOT
ATOM      1  C3  UNK     1       0.050  43.930 228.944  1.00  0.00    -0.025 A 
ATOM      2  C4  UNK     1      -0.238  44.091 227.589  1.00  0.00     0.046 A 
ATOM      3  C5  UNK     1      -0.663  43.003 229.704  1.00  0.00     0.010 A 
ATOM      4  C6  UNK     1      -1.239  43.323 226.992  1.00  0.00     0.066 A 
ATOM      5  C7  UNK     1      -1.663  42.235 229.108  1.00  0.00     0.003 A 
ATOM      6  C8  UNK     1      -1.952  42.395 227.753  1.00  0.00     0.036 A 
ENDROOT
BRANCH   1   7
ATOM      7  C1  UNK     1       1.120  44.751 229.581  1.00  0.00     0.179 C 
BRANCH   7   8
ATOM      8  O1  UNK     1       0.958  44.705 231.005  1.00  0.00    -0.389 OA
ATOM      9  H8  UNK     1       1.194  43.808 231.296  1.00  0.00     0.210 HD
ENDBRANCH   7   8
BRANCH   7  10
ATOM     10  C2  UNK     1       2.532  44.258 229.208  1.00  0.00     0.305 C 
BRANCH  10  11
ATOM     11  N1  UNK     1       3.525  44.671 230.198  1.00  0.00     0.082 N 
ATOM     12  C9  UNK     1       4.631  43.726 230.243  1.00  0.00     0.306 C 
ATOM     13  H6  UNK     1       3.088  44.727 231.117  1.00  0.00     0.315 HD
ENDBRANCH  10  11
ENDBRANCH   7  10
ENDBRANCH   1   7
BRANCH   4  14
ATOM     14  O2  UNK     1      -1.519  43.479 225.670  1.00  0.00    -0.361 OA
ATOM     15  H13 UNK     1      -0.758  43.169 225.148  1.00  0.00     0.217 HD
ENDBRANCH   4  14
TORSDOF 5
ENDMDL
MODEL 2
REMARK VINA RESULT:      -5.8      2.408      5.166
REMARK  5 active torsions:
REMARK  status: ('A' for Active; 'I' for Inactive)
REMARK    1  A    between atoms: O1_1  and  C1_4 
REMARK    2  A    between atoms: O2_2  and  C6_9 
REMARK    3  A    between atoms: N1_3  and  C2_5 
REMARK    4  A    between atoms: C1_4  and  C2_5 
REMARK    5  A    between atoms: C1_4  and  C3_6 
ROOT
ATOM      1  C3  UNK     1       1.440  43.564 229.113  1.00  0.00    -0.025 A 
ATOM      2  C4  UNK     1       1.929  44.099 230.304  1.00  0.00     0.046 A 
ATOM      3  C5  UNK     1       2.294  42.864 228.260  1.00  0.00     0.010 A 
ATOM      4  C6  UNK     1       3.271  43.932 230.646  1.00  0.00     0.066 A 
ATOM      5  C7  UNK     1       3.636  42.697 228.602  1.00  0.00     0.003 A 
ATOM      6  C8  UNK     1       4.125  43.231 229.794  1.00  0.00     0.036 A 
ENDROOT
BRANCH   1   7
ATOM      7  C1  UNK     1       0.004  43.742 228.748  1.00  0.00     0.179 C 
BRANCH   7   8
ATOM      8  O1  UNK     1      -0.201  45.089 228.303  1.00  0.00    -0.389 OA
ATOM      9  H8  UNK     1       0.626  45.388 227.888  1.00  0.00     0.210 HD
ENDBRANCH   7   8
BRANCH   7  10
ATOM     10  C2  UNK     1      -0.442  42.762 227.645  1.00  0.00     0.305 C 
BRANCH  10  11
ATOM     11  N1  UNK     1      -0.836  43.467 226.427  1.00  0.00     0.082 N 
ATOM     12  C9  UNK     1      -2.076  42.922 225.895  1.00  0.00     0.306 C 
ATOM     13  H6  UNK     1      -0.099  43.379 225.728  1.00  0.00     0.315 HD
ENDBRANCH  10  11
ENDBRANCH   7  10
ENDBRANCH   1   7
BRANCH   4  14
ATOM     14  O2  UNK     1       3.747  44.453 231.809  1.00  0.00    -0.361 OA
ATOM     15  H13 UNK     1       4.544  43.960 232.072  1.00  0.00     0.217 HD
ENDBRANCH   4  14
TORSDOF 5
ENDMDL
MODEL 3
REMARK VINA RESULT:      -5.8      1.699      2.170
REMARK  5 active torsions:
REMARK  status: ('A' for Active; 'I' for Inactive)
REMARK    1  A    between atoms: O1_1  and  C1_4 
REMARK    2  A    between atoms: O2_2  and  C6_9 
REMARK    3  A    between atoms: N1_3  and  C2_5 
REMARK    4  A    between atoms: C1_4  and  C2_5 
REMARK    5  A    between atoms: C1_4  and  C3_6 
ROOT
ATOM      1  C3  UNK     1       0.049  44.120 228.662  1.00  0.00    -0.025 A 
ATOM      2  C4  UNK     1      -0.283  43.295 229.736  1.00  0.00     0.046 A 
ATOM      3  C5  UNK     1      -0.553  43.923 227.419  1.00  0.00     0.010 A 
ATOM      4  C6  UNK     1      -1.218  42.273 229.569  1.00  0.00     0.066 A 
ATOM      5  C7  UNK     1      -1.487  42.901 227.252  1.00  0.00     0.003 A 
ATOM      6  C8  UNK     1      -1.819  42.076 228.326  1.00  0.00     0.036 A 
ENDROOT
BRANCH   1   7
ATOM      7  C1  UNK     1       1.048  45.214 228.842  1.00  0.00     0.179 C 
BRANCH   7   8
ATOM      8  O1  UNK     1       0.701  45.977 230.005  1.00  0.00    -0.389 OA
ATOM      9  H8  UNK     1       0.286  46.802 229.698  1.00  0.00     0.210 HD
ENDBRANCH   7   8
BRANCH   7  10
ATOM     10  C2  UNK     1       2.483  44.673 228.992  1.00  0.00     0.305 C 
BRANCH  10  11
ATOM     11  N1  UNK     1       2.919  44.682 230.386  1.00  0.00     0.082 N 
ATOM     12  C9  UNK     1       4.273  44.162 230.506  1.00  0.00     0.306 C 
ATOM     13  H6  UNK     1       2.285  44.113 230.946  1.00  0.00     0.315 HD
ENDBRANCH  10  11
ENDBRANCH   7  10
ENDBRANCH   1   7
BRANCH   4  14
ATOM     14  O2  UNK     1      -1.542  41.468 230.617  1.00  0.00    -0.361 OA
ATOM     15  H13 UNK     1      -2.219  41.913 231.158  1.00  0.00     0.217 HD
ENDBRANCH   4  14
TORSDOF 5
ENDMDL
MODEL 4
REMARK VINA RESULT:      -5.7      2.805      5.250
REMARK  5 active torsions:
REMARK  status: ('A' for Active; 'I' for Inactive)
REMARK    1  A    between atoms: O1_1  and  C1_4 
REMARK    2  A    between atoms: O2_2  and  C6_9 
REMARK    3  A    between atoms: N1_3  and  C2_5 
REMARK    4  A    between atoms: C1_4  and  C2_5 
REMARK    5  A    between atoms: C1_4  and  C3_6 
ROOT
ATOM      1  C3  UNK     1       1.972  43.034 228.764  1.00  0.00    -0.025 A 
ATOM      2  C4  UNK     1       3.360  42.929 228.835  1.00  0.00     0.046 A 
ATOM      3  C5  UNK     1       1.269  43.697 229.771  1.00  0.00     0.010 A 
ATOM      4  C6  UNK     1       4.048  43.487 229.913  1.00  0.00     0.066 A 
ATOM      5  C7  UNK     1       1.957  44.255 230.848  1.00  0.00     0.003 A 
ATOM      6  C8  UNK     1       3.346  44.150 230.920  1.00  0.00     0.036 A 
ENDROOT
BRANCH   1   7
ATOM      7  C1  UNK     1       1.236  42.438 227.611  1.00  0.00     0.179 C 
BRANCH   7   8
ATOM      8  O1  UNK     1       1.472  41.024 227.587  1.00  0.00    -0.389 OA
ATOM      9  H8  UNK     1       0.924  40.626 228.284  1.00  0.00     0.210 HD
ENDBRANCH   7   8
BRANCH   7  10
ATOM     10  C2  UNK     1      -0.280  42.705 227.687  1.00  0.00     0.305 C 
BRANCH  10  11
ATOM     11  N1  UNK     1      -0.734  43.549 226.583  1.00  0.00     0.082 N 
ATOM     12  C9  UNK     1      -1.909  42.975 225.945  1.00  0.00     0.306 C 
ATOM     13  H6  UNK     1       0.014  43.643 225.896  1.00  0.00     0.315 HD
ENDBRANCH  10  11
ENDBRANCH   7  10
ENDBRANCH   1   7
BRANCH   4  14
ATOM     14  O2  UNK     1       5.404  43.385 229.982  1.00  0.00    -0.361 OA
ATOM     15  H13 UNK     1       5.681  43.502 230.908  1.00  0.00     0.217 HD
ENDBRANCH   4  14
TORSDOF 5
ENDMDL
MODEL 5
REMARK VINA RESULT:      -5.6      1.980      2.768
REMARK  5 active torsions:
REMARK  status: ('A' for Active; 'I' for Inactive)
REMARK    1  A    between atoms: O1_1  and  C1_4 
REMARK    2  A    between atoms: O2_2  and  C6_9 
REMARK    3  A    between atoms: N1_3  and  C2_5 
REMARK    4  A    between atoms: C1_4  and  C2_5 
REMARK    5  A    between atoms: C1_4  and  C3_6 
ROOT
ATOM      1  C3  UNK     1       0.403  42.780 228.323  1.00  0.00    -0.025 A 
ATOM      2  C4  UNK     1       0.034  42.115 229.492  1.00  0.00     0.046 A 
ATOM      3  C5  UNK     1      -0.548  43.033 227.334  1.00  0.00     0.010 A 
ATOM      4  C6  UNK     1      -1.287  41.704 229.674  1.00  0.00     0.066 A 
ATOM      5  C7  UNK     1      -1.868  42.622 227.516  1.00  0.00     0.003 A 
ATOM      6  C8  UNK     1      -2.238  41.957 228.684  1.00  0.00     0.036 A 
ENDROOT
BRANCH   1   7
ATOM      7  C1  UNK     1       1.816  43.220 228.130  1.00  0.00     0.179 C 
BRANCH   7   8
ATOM      8  O1  UNK     1       2.221  42.913 226.790  1.00  0.00    -0.389 OA
ATOM      9  H8  UNK     1       2.053  41.967 226.644  1.00  0.00     0.210 HD
ENDBRANCH   7   8
BRANCH   7  10
ATOM     10  C2  UNK     1       1.996  44.729 228.389  1.00  0.00     0.305 C 
BRANCH  10  11
ATOM     11  N1  UNK     1       2.662  44.980 229.665  1.00  0.00     0.082 N 
ATOM     12  C9  UNK     1       3.763  44.050 229.862  1.00  0.00     0.306 C 
ATOM     13  H6  UNK     1       1.991  44.879 230.426  1.00  0.00     0.315 HD
ENDBRANCH  10  11
ENDBRANCH   7  10
ENDBRANCH   1   7
BRANCH   4  14
ATOM     14  O2  UNK     1      -1.647  41.055 230.815  1.00  0.00    -0.361 OA
ATOM     15  H13 UNK     1      -2.369  41.549 231.242  1.00  0.00     0.217 HD
ENDBRANCH   4  14
TORSDOF 5
ENDMDL
MODEL 6
REMARK VINA RESULT:      -5.5      2.190      5.009
REMARK  5 active torsions:
REMARK  status: ('A' for Active; 'I' for Inactive)
REMARK    1  A    between atoms: O1_1  and  C1_4 
REMARK    2  A    between atoms: O2_2  and  C6_9 
REMARK    3  A    between atoms: N1_3  and  C2_5 
REMARK    4  A    between atoms: C1_4  and  C2_5 
REMARK    5  A    between atoms: C1_4  and  C3_6 
ROOT
ATOM      1  C3  UNK     1       1.328  43.506 228.981  1.00  0.00    -0.025 A 
ATOM      2  C4  UNK     1       1.725  44.040 230.206  1.00  0.00     0.046 A 
ATOM      3  C5  UNK     1       2.260  42.867 228.163  1.00  0.00     0.010 A 
ATOM      4  C6  UNK     1       3.055  43.935 230.616  1.00  0.00     0.066 A 
ATOM      5  C7  UNK     1       3.589  42.762 228.572  1.00  0.00     0.003 A 
ATOM      6  C8  UNK     1       3.987  43.296 229.798  1.00  0.00     0.036 A 
ENDROOT
BRANCH   1   7
ATOM      7  C1  UNK     1      -0.095  43.618 228.545  1.00  0.00     0.179 C 
BRANCH   7   8
ATOM      8  O1  UNK     1      -0.189  43.252 227.162  1.00  0.00    -0.389 OA
ATOM      9  H8  UNK     1      -0.224  44.075 226.645  1.00  0.00     0.210 HD
ENDBRANCH   7   8
BRANCH   7  10
ATOM     10  C2  UNK     1      -1.032  42.723 229.379  1.00  0.00     0.305 C 
BRANCH  10  11
ATOM     11  N1  UNK     1      -0.594  41.329 229.370  1.00  0.00     0.082 N 
ATOM     12  C9  UNK     1      -1.500  40.499 230.149  1.00  0.00     0.306 C 
ATOM     13  H6  UNK     1       0.346  41.265 229.760  1.00  0.00     0.315 HD
ENDBRANCH  10  11
ENDBRANCH   7  10
ENDBRANCH   1   7
BRANCH   4  14
ATOM     14  O2  UNK     1       3.442  44.456 231.812  1.00  0.00    -0.361 OA
ATOM     15  H13 UNK     1       3.089  45.359 231.891  1.00  0.00     0.217 HD
ENDBRANCH   4  14
TORSDOF 5
ENDMDL
MODEL 7
REMARK VINA RESULT:      -5.5      1.814      2.107
REMARK  5 active torsions:
REMARK  status: ('A' for Active; 'I' for Inactive)
REMARK    1  A    between atoms: O1_1  and  C1_4 
REMARK    2  A    between atoms: O2_2  and  C6_9 
REMARK    3  A    between atoms: N1_3  and  C2_5 
REMARK    4  A    between atoms: C1_4  and  C2_5 
REMARK    5  A    between atoms: C1_4  and  C3_6 
ROOT
ATOM      1  C3  UNK     1       0.383  42.692 228.372  1.00  0.00    -0.025 A 
ATOM      2  C4  UNK     1      -0.042  43.095 227.108  1.00  0.00     0.046 A 
ATOM      3  C5  UNK     1      -0.538  42.189 229.292  1.00  0.00     0.010 A 
ATOM      4  C6  UNK     1      -1.390  42.995 226.759  1.00  0.00     0.066 A 
ATOM      5  C7  UNK     1      -1.885  42.089 228.944  1.00  0.00     0.003 A 
ATOM      6  C8  UNK     1      -2.311  42.492 227.679  1.00  0.00     0.036 A 
ENDROOT
BRANCH   1   7
ATOM      7  C1  UNK     1       1.825  42.798 228.744  1.00  0.00     0.179 C 
BRANCH   7   8
ATOM      8  O1  UNK     1       2.571  41.826 228.001  1.00  0.00    -0.389 OA
ATOM      9  H8  UNK     1       3.413  42.240 227.744  1.00  0.00     0.210 HD
ENDBRANCH   7   8
BRANCH   7  10
ATOM     10  C2  UNK     1       2.395  44.204 228.469  1.00  0.00     0.305 C 
BRANCH  10  11
ATOM     11  N1  UNK     1       1.960  45.168 229.478  1.00  0.00     0.082 N 
ATOM     12  C9  UNK     1       1.222  46.260 228.863  1.00  0.00     0.306 C 
ATOM     13  H6  UNK     1       2.774  45.540 229.967  1.00  0.00     0.315 HD
ENDBRANCH  10  11
ENDBRANCH   7  10
ENDBRANCH   1   7
BRANCH   4  14
ATOM     14  O2  UNK     1      -1.805  43.387 225.524  1.00  0.00    -0.361 OA
ATOM     15  H13 UNK     1      -1.059  43.314 224.904  1.00  0.00     0.217 HD
ENDBRANCH   4  14
TORSDOF 5
ENDMDL
MODEL 8
REMARK VINA RESULT:      -5.4      3.115      5.062
REMARK  5 active torsions:
REMARK  status: ('A' for Active; 'I' for Inactive)
REMARK    1  A    between atoms: O1_1  and  C1_4 
REMARK    2  A    between atoms: O2_2  and  C6_9 
REMARK    3  A    between atoms: N1_3  and  C2_5 
REMARK    4  A    between atoms: C1_4  and  C2_5 
REMARK    5  A    between atoms: C1_4  and  C3_6 
ROOT
ATOM      1  C3  UNK     1       0.066  42.581 229.223  1.00  0.00    -0.025 A 
ATOM      2  C4  UNK     1      -0.189  43.851 229.739  1.00  0.00     0.046 A 
ATOM      3  C5  UNK     1       1.282  42.316 228.591  1.00  0.00     0.010 A 
ATOM      4  C6  UNK     1       0.771  44.857 229.626  1.00  0.00     0.066 A 
ATOM      5  C7  UNK     1       2.241  43.321 228.478  1.00  0.00     0.003 A 
ATOM      6  C8  UNK     1       1.986  44.592 228.994  1.00  0.00     0.036 A 
ENDROOT
BRANCH   1   7
ATOM      7  C1  UNK     1      -0.960  41.505 229.346  1.00  0.00     0.179 C 
BRANCH   7   8
ATOM      8  O1  UNK     1      -1.217  41.261 230.735  1.00  0.00    -0.389 OA
ATOM      9  H8  UNK     1      -2.143  40.974 230.814  1.00  0.00     0.210 HD
ENDBRANCH   7   8
BRANCH   7  10
ATOM     10  C2  UNK     1      -2.278  41.874 228.636  1.00  0.00     0.305 C 
BRANCH  10  11
ATOM     11  N1  UNK     1      -3.442  41.501 229.436  1.00  0.00     0.082 N 
ATOM     12  C9  UNK     1      -4.353  40.668 228.664  1.00  0.00     0.306 C 
ATOM     13  H6  UNK     1      -3.930  42.342 229.743  1.00  0.00     0.315 HD
ENDBRANCH  10  11
ENDBRANCH   7  10
ENDBRANCH   1   7
BRANCH   4  14
ATOM     14  O2  UNK     1       0.522  46.096 230.130  1.00  0.00    -0.361 OA
ATOM     15  H13 UNK     1       1.185  46.296 230.814  1.00  0.00     0.217 HD
ENDBRANCH   4  14
TORSDOF 5
ENDMDL
MODEL 9
REMARK VINA RESULT:      -5.3      2.743      5.183
REMARK  5 active torsions:
REMARK  status: ('A' for Active; 'I' for Inactive)
REMARK    1  A    between atoms: O1_1  and  C1_4 
REMARK    2  A    between atoms: O2_2  and  C6_9 
REMARK    3  A    between atoms: N1_3  and  C2_5 
REMARK    4  A    between atoms: C1_4  and  C2_5 
REMARK    5  A    between atoms: C1_4  and  C3_6 
ROOT
ATOM      1  C3  UNK     1       0.188  42.791 228.294  1.00  0.00    -0.025 A 
ATOM      2  C4  UNK     1       0.184  43.555 229.460  1.00  0.00     0.046 A 
ATOM      3  C5  UNK     1       1.396  42.371 227.738  1.00  0.00     0.010 A 
ATOM      4  C6  UNK     1       1.390  43.899 230.072  1.00  0.00     0.066 A 
ATOM      5  C7  UNK     1       2.601  42.715 228.350  1.00  0.00     0.003 A 
ATOM      6  C8  UNK     1       2.599  43.479 229.516  1.00  0.00     0.036 A 
ENDROOT
BRANCH   1   7
ATOM      7  C1  UNK     1      -1.102  42.422 227.640  1.00  0.00     0.179 C 
BRANCH   7   8
ATOM      8  O1  UNK     1      -2.155  42.496 228.609  1.00  0.00    -0.389 OA
ATOM      9  H8  UNK     1      -2.993  42.337 228.141  1.00  0.00     0.210 HD
ENDBRANCH   7   8
BRANCH   7  10
ATOM     10  C2  UNK     1      -1.434  43.342 226.448  1.00  0.00     0.305 C 
BRANCH  10  11
ATOM     11  N1  UNK     1      -2.876  43.455 226.242  1.00  0.00     0.082 N 
ATOM     12  C9  UNK     1      -3.315  42.569 225.174  1.00  0.00     0.306 C 
ATOM     13  H6  UNK     1      -3.113  44.418 226.003  1.00  0.00     0.315 HD
ENDBRANCH  10  11
ENDBRANCH   7  10
ENDBRANCH   1   7
BRANCH   4  14
ATOM     14  O2  UNK     1       1.387  44.645 231.211  1.00  0.00    -0.361 OA
ATOM     15  H13 UNK     1       1.904  45.455 231.058  1.00  0.00     0.217 HD
ENDBRANCH   4  14
TORSDOF 5
ENDMDL
