MODEL 1
REMARK VINA RESULT:      -6.9      0.000      0.000
REMARK  7 active torsions:
REMARK  status: ('A' for Active; 'I' for Inactive)
REMARK    1  A    between atoms: O1_1  and  C6_11 
REMARK    2  A    between atoms: O2_2  and  C7_12 
REMARK    3  A    between atoms: O3_3  and  C9_14 
REMARK    4  A    between atoms: N1_5  and  C2_7 
REMARK    5  A    between atoms: C1_6  and  C2_7 
REMARK    6  A    between atoms: C1_6  and  C3_8 
REMARK    7  A    between atoms: C2_7  and  C7_12 
ROOT
ATOM      1  C3  UNK     1       2.104  43.078 228.870  1.00  0.00    -0.053 A 
ATOM      2  C4  UNK     1       1.926  43.697 230.096  1.00  0.00     0.046 A 
ATOM      3  C5  UNK     1       3.361  42.711 228.421  1.00  0.00     0.010 A 
ATOM      4  C6  UNK     1       3.038  43.958 230.896  1.00  0.00     0.099 A 
ATOM      5  C8  UNK     1       4.473  42.972 229.221  1.00  0.00     0.040 A 
ATOM      6  C9  UNK     1       4.312  43.595 230.459  1.00  0.00     0.098 A 
ENDROOT
BRANCH   1   7
ATOM      7  C1  UNK     1       0.898  42.797 228.002  1.00  0.00     0.085 C 
BRANCH   7   8
ATOM      8  C2  UNK     1      -0.083  43.979 227.943  1.00  0.00     0.318 C 
BRANCH   8   9
ATOM      9  N1  UNK     1      -0.971  43.826 226.792  1.00  0.00     0.093 N 
ATOM     10  H7  UNK     1      -1.916  43.623 227.115  1.00  0.00     0.314 HD
ATOM     11  H8  UNK     1      -0.687  43.016 226.242  1.00  0.00     0.314 HD
ENDBRANCH   8   9
BRANCH   8  12
ATOM     12  C7  UNK     1       0.632  45.307 227.766  1.00  0.00     0.174 C 
ATOM     13  O4  UNK     1       0.566  46.247 228.550  1.00  0.00    -0.648 OA
BRANCH  12  14
ATOM     14  O2  UNK     1       1.394  45.338 226.644  1.00  0.00    -0.775 OA
ATOM     15  H10 UNK     1       1.443  46.239 226.259  1.00  0.00     0.167 HD
ENDBRANCH  12  14
ENDBRANCH   8  12
ENDBRANCH   7   8
ENDBRANCH   1   7
BRANCH   4  16
ATOM     16  O1  UNK     1       2.868  44.566 232.103  1.00  0.00    -0.358 OA
ATOM     17  H9  UNK     1       2.262  45.318 231.985  1.00  0.00     0.218 HD
ENDBRANCH   4  16
BRANCH   6  18
ATOM     18  O3  UNK     1       5.406  43.843 231.232  1.00  0.00    -0.358 OA
ATOM     19  H11 UNK     1       5.256  44.657 231.742  1.00  0.00     0.218 HD
ENDBRANCH   6  18
TORSDOF 7
ENDMDL
MODEL 2
REMARK VINA RESULT:      -6.8      2.439      2.761
REMARK  7 active torsions:
REMARK  status: ('A' for Active; 'I' for Inactive)
REMARK    1  A    between atoms: O1_1  and  C6_11 
REMARK    2  A    between atoms: O2_2  and  C7_12 
REMARK    3  A    between atoms: O3_3  and  C9_14 
REMARK    4  A    between atoms: N1_5  and  C2_7 
REMARK    5  A    between atoms: C1_6  and  C2_7 
REMARK    6  A    between atoms: C1_6  and  C3_8 
REMARK    7  A    between atoms: C2_7  and  C7_12 
ROOT
ATOM      1  C3  UNK     1       1.259  43.611 229.198  1.00  0.00    -0.053 A 
ATOM      2  C4  UNK     1       1.762  44.127 230.380  1.00  0.00     0.046 A 
ATOM      3  C5  UNK     1       2.076  42.966 228.285  1.00  0.00     0.010 A 
ATOM      4  C6  UNK     1       3.123  43.995 230.658  1.00  0.00     0.099 A 
ATOM      5  C8  UNK     1       3.436  42.834 228.562  1.00  0.00     0.040 A 
ATOM      6  C9  UNK     1       3.960  43.348 229.748  1.00  0.00     0.098 A 
ENDROOT
BRANCH   1   7
ATOM      7  C1  UNK     1      -0.216  43.756 228.897  1.00  0.00     0.085 C 
BRANCH   7   8
ATOM      8  C2  UNK     1      -0.830  42.479 228.301  1.00  0.00     0.318 C 
BRANCH   8   9
ATOM      9  N1  UNK     1      -1.534  42.804 227.061  1.00  0.00     0.093 N 
ATOM     10  H7  UNK     1      -2.538  42.705 227.203  1.00  0.00     0.314 HD
ATOM     11  H8  UNK     1      -1.289  42.128 226.338  1.00  0.00     0.314 HD
ENDBRANCH   8   9
BRANCH   8  12
ATOM     12  C7  UNK     1      -1.854  41.850 229.229  1.00  0.00     0.174 C 
ATOM     13  O4  UNK     1      -2.965  41.463 228.887  1.00  0.00    -0.648 OA
BRANCH  12  14
ATOM     14  O2  UNK     1      -1.392  41.727 230.500  1.00  0.00    -0.775 OA
ATOM     15  H10 UNK     1      -1.801  42.383 231.103  1.00  0.00     0.167 HD
ENDBRANCH  12  14
ENDBRANCH   8  12
ENDBRANCH   7   8
ENDBRANCH   1   7
BRANCH   4  16
ATOM     16  O1  UNK     1       3.622  44.500 231.820  1.00  0.00    -0.358 OA
ATOM     17  H9  UNK     1       3.327  45.423 231.905  1.00  0.00     0.218 HD
ENDBRANCH   4  16
BRANCH   6  18
ATOM     18  O3  UNK     1       5.290  43.211 230.009  1.00  0.00    -0.358 OA
ATOM     19  H11 UNK     1       5.654  42.511 229.440  1.00  0.00     0.218 HD
ENDBRANCH   6  18
TORSDOF 7
ENDMDL
MODEL 3
REMARK VINA RESULT:      -6.8      3.028      5.319
REMARK  7 active torsions:
REMARK  status: ('A' for Active; 'I' for Inactive)
REMARK    1  A    between atoms: O1_1  and  C6_11 
REMARK    2  A    between atoms: O2_2  and  C7_12 
REMARK    3  A    between atoms: O3_3  and  C9_14 
REMARK    4  A    between atoms: N1_5  and  C2_7 
REMARK    5  A    between atoms: C1_6  and  C2_7 
REMARK    6  A    between atoms: C1_6  and  C3_8 
REMARK    7  A    between atoms: C2_7  and  C7_12 
ROOT
ATOM      1  C3  UNK     1      -0.379  43.299 228.974  1.00  0.00    -0.053 A 
ATOM      2  C4  UNK     1      -0.462  43.611 227.627  1.00  0.00     0.046 A 
ATOM      3  C5  UNK     1      -1.338  42.517 229.595  1.00  0.00     0.010 A 
ATOM      4  C6  UNK     1      -1.537  43.129 226.880  1.00  0.00     0.099 A 
ATOM      5  C8  UNK     1      -2.413  42.035 228.849  1.00  0.00     0.040 A 
ATOM      6  C9  UNK     1      -2.512  42.340 227.491  1.00  0.00     0.098 A 
ENDROOT
BRANCH   1   7
ATOM      7  C1  UNK     1       0.785  43.824 229.783  1.00  0.00     0.085 C 
BRANCH   7   8
ATOM      8  C2  UNK     1       1.654  44.821 229.000  1.00  0.00     0.318 C 
BRANCH   8   9
ATOM      9  N1  UNK     1       2.977  44.913 229.618  1.00  0.00     0.093 N 
ATOM     10  H7  UNK     1       3.693  44.732 228.916  1.00  0.00     0.314 HD
ATOM     11  H8  UNK     1       3.083  44.180 230.318  1.00  0.00     0.314 HD
ENDBRANCH   8   9
BRANCH   8  12
ATOM     12  C7  UNK     1       1.070  46.223 229.014  1.00  0.00     0.174 C 
ATOM     13  O4  UNK     1       0.331  46.664 229.885  1.00  0.00    -0.648 OA
BRANCH  12  14
ATOM     14  O2  UNK     1       1.485  46.965 227.956  1.00  0.00    -0.775 OA
ATOM     15  H10 UNK     1       2.381  47.337 228.098  1.00  0.00     0.167 HD
ENDBRANCH  12  14
ENDBRANCH   8  12
ENDBRANCH   7   8
ENDBRANCH   1   7
BRANCH   4  16
ATOM     16  O1  UNK     1      -1.623  43.432 225.555  1.00  0.00    -0.358 OA
ATOM     17  H9  UNK     1      -2.431  43.024 225.199  1.00  0.00     0.218 HD
ENDBRANCH   4  16
BRANCH   6  18
ATOM     18  O3  UNK     1      -3.566  41.861 226.772  1.00  0.00    -0.358 OA
ATOM     19  H11 UNK     1      -3.228  41.325 226.034  1.00  0.00     0.218 HD
ENDBRANCH   6  18
TORSDOF 7
ENDMDL
MODEL 4
REMARK VINA RESULT:      -6.6      2.534      5.395
REMARK  7 active torsions:
REMARK  status: ('A' for Active; 'I' for Inactive)
REMARK    1  A    between atoms: O1_1  and  C6_11 
REMARK    2  A    between atoms: O2_2  and  C7_12 
REMARK    3  A    between atoms: O3_3  and  C9_14 
REMARK    4  A    between atoms: N1_5  and  C2_7 
REMARK    5  A    between atoms: C1_6  and  C2_7 
REMARK    6  A    between atoms: C1_6  and  C3_8 
REMARK    7  A    between atoms: C2_7  and  C7_12 
ROOT
ATOM      1  C3  UNK     1       0.594  42.815 228.546  1.00  0.00    -0.053 A 
ATOM      2  C4  UNK     1       0.171  43.188 227.281  1.00  0.00     0.046 A 
ATOM      3  C5  UNK     1      -0.281  42.271 229.469  1.00  0.00     0.010 A 
ATOM      4  C6  UNK     1      -1.168  43.015 226.931  1.00  0.00     0.099 A 
ATOM      5  C8  UNK     1      -1.620  42.097 229.120  1.00  0.00     0.040 A 
ATOM      6  C9  UNK     1      -2.063  42.469 227.850  1.00  0.00     0.098 A 
ENDROOT
BRANCH   1   7
ATOM      7  C1  UNK     1       2.046  43.005 228.925  1.00  0.00     0.085 C 
BRANCH   7   8
ATOM      8  C2  UNK     1       2.265  44.203 229.862  1.00  0.00     0.318 C 
BRANCH   8   9
ATOM      9  N1  UNK     1       2.130  45.449 229.109  1.00  0.00     0.093 N 
ATOM     10  H7  UNK     1       1.923  45.237 228.134  1.00  0.00     0.314 HD
ATOM     11  H8  UNK     1       3.019  45.947 229.102  1.00  0.00     0.314 HD
ENDBRANCH   8   9
BRANCH   8  12
ATOM     12  C7  UNK     1       3.659  44.210 230.466  1.00  0.00     0.174 C 
ATOM     13  O4  UNK     1       4.700  44.191 229.823  1.00  0.00    -0.648 OA
BRANCH  12  14
ATOM     14  O2  UNK     1       3.633  44.273 231.822  1.00  0.00    -0.775 OA
ATOM     15  H10 UNK     1       4.338  43.724 232.227  1.00  0.00     0.167 HD
ENDBRANCH  12  14
ENDBRANCH   8  12
ENDBRANCH   7   8
ENDBRANCH   1   7
BRANCH   4  16
ATOM     16  O1  UNK     1      -1.589  43.380 225.688  1.00  0.00    -0.358 OA
ATOM     17  H9  UNK     1      -1.359  44.315 225.549  1.00  0.00     0.218 HD
ENDBRANCH   4  16
BRANCH   6  18
ATOM     18  O3  UNK     1      -3.373  42.292 227.520  1.00  0.00    -0.358 OA
ATOM     19  H11 UNK     1      -3.827  43.151 227.553  1.00  0.00     0.218 HD
ENDBRANCH   6  18
TORSDOF 7
ENDMDL
MODEL 5
REMARK VINA RESULT:      -6.5      2.202      2.387
REMARK  7 active torsions:
REMARK  status: ('A' for Active; 'I' for Inactive)
REMARK    1  A    between atoms: O1_1  and  C6_11 
REMARK    2  A    between atoms: O2_2  and  C7_12 
REMARK    3  A    between atoms: O3_3  and  C9_14 
REMARK    4  A    between atoms: N1_5  and  C2_7 
REMARK    5  A    between atoms: C1_6  and  C2_7 
REMARK    6  A    between atoms: C1_6  and  C3_8 
REMARK    7  A    between atoms: C2_7  and  C7_12 
ROOT
ATOM      1  C3  UNK     1       1.322  42.836 228.474  1.00  0.00    -0.053 A 
ATOM      2  C4  UNK     1       0.941  43.525 229.613  1.00  0.00     0.046 A 
ATOM      3  C5  UNK     1       2.655  42.620 228.172  1.00  0.00     0.010 A 
ATOM      4  C6  UNK     1       1.922  44.013 230.475  1.00  0.00     0.099 A 
ATOM      5  C8  UNK     1       3.637  43.108 229.033  1.00  0.00     0.040 A 
ATOM      6  C9  UNK     1       3.271  43.805 230.186  1.00  0.00     0.098 A 
ENDROOT
BRANCH   1   7
ATOM      7  C1  UNK     1       0.257  42.308 227.539  1.00  0.00     0.085 C 
BRANCH   7   8
ATOM      8  C2  UNK     1      -1.163  42.715 227.962  1.00  0.00     0.318 C 
BRANCH   8   9
ATOM      9  N1  UNK     1      -1.762  41.651 228.766  1.00  0.00     0.093 N 
ATOM     10  H7  UNK     1      -1.722  41.906 229.752  1.00  0.00     0.314 HD
ATOM     11  H8  UNK     1      -1.211  40.799 228.677  1.00  0.00     0.314 HD
ENDBRANCH   8   9
BRANCH   8  12
ATOM     12  C7  UNK     1      -2.078  42.924 226.768  1.00  0.00     0.174 C 
ATOM     13  O4  UNK     1      -3.268  42.636 226.739  1.00  0.00    -0.648 OA
BRANCH  12  14
ATOM     14  O2  UNK     1      -1.438  43.507 225.722  1.00  0.00    -0.775 OA
ATOM     15  H10 UNK     1      -1.748  43.156 224.861  1.00  0.00     0.167 HD
ENDBRANCH  12  14
ENDBRANCH   8  12
ENDBRANCH   7   8
ENDBRANCH   1   7
BRANCH   4  16
ATOM     16  O1  UNK     1       1.552  44.691 231.597  1.00  0.00    -0.358 OA
ATOM     17  H9  UNK     1       2.223  44.537 232.284  1.00  0.00     0.218 HD
ENDBRANCH   4  16
BRANCH   6  18
ATOM     18  O3  UNK     1       4.239  44.275 231.021  1.00  0.00    -0.358 OA
ATOM     19  H11 UNK     1       4.713  43.522 231.412  1.00  0.00     0.218 HD
ENDBRANCH   6  18
TORSDOF 7
ENDMDL
MODEL 6
REMARK VINA RESULT:      -6.4      3.530      5.407
REMARK  7 active torsions:
REMARK  status: ('A' for Active; 'I' for Inactive)
REMARK    1  A    between atoms: O1_1  and  C6_11 
REMARK    2  A    between atoms: O2_2  and  C7_12 
REMARK    3  A    between atoms: O3_3  and  C9_14 
REMARK    4  A    between atoms: N1_5  and  C2_7 
REMARK    5  A    between atoms: C1_6  and  C2_7 
REMARK    6  A    between atoms: C1_6  and  C3_8 
REMARK    7  A    between atoms: C2_7  and  C7_12 
ROOT
ATOM      1  C3  UNK     1      -0.813  42.789 228.478  1.00  0.00    -0.053 A 
ATOM      2  C4  UNK     1      -1.267  41.956 229.486  1.00  0.00     0.046 A 
ATOM      3  C5  UNK     1      -1.556  43.006 227.330  1.00  0.00     0.010 A 
ATOM      4  C6  UNK     1      -2.500  41.320 229.343  1.00  0.00     0.099 A 
ATOM      5  C8  UNK     1      -2.789  42.370 227.186  1.00  0.00     0.040 A 
ATOM      6  C9  UNK     1      -3.262  41.528 228.192  1.00  0.00     0.098 A 
ENDROOT
BRANCH   1   7
ATOM      7  C1  UNK     1       0.524  43.477 228.634  1.00  0.00     0.085 C 
BRANCH   7   8
ATOM      8  C2  UNK     1       0.534  44.900 228.054  1.00  0.00     0.318 C 
BRANCH   8   9
ATOM      9  N1  UNK     1       1.631  45.036 227.097  1.00  0.00     0.093 N 
ATOM     10  H7  UNK     1       1.395  44.545 226.236  1.00  0.00     0.314 HD
ATOM     11  H8  UNK     1       2.465  44.575 227.460  1.00  0.00     0.314 HD
ENDBRANCH   8   9
BRANCH   8  12
ATOM     12  C7  UNK     1       0.759  45.953 229.125  1.00  0.00     0.174 C 
ATOM     13  O4  UNK     1       0.693  47.162 228.943  1.00  0.00    -0.648 OA
BRANCH  12  14
ATOM     14  O2  UNK     1       1.013  45.406 230.341  1.00  0.00    -0.775 OA
ATOM     15  H10 UNK     1       0.188  45.195 230.828  1.00  0.00     0.167 HD
ENDBRANCH  12  14
ENDBRANCH   8  12
ENDBRANCH   7   8
ENDBRANCH   1   7
BRANCH   4  16
ATOM     16  O1  UNK     1      -2.952  40.500 230.332  1.00  0.00    -0.358 OA
ATOM     17  H9  UNK     1      -3.766  40.884 230.701  1.00  0.00     0.218 HD
ENDBRANCH   4  16
BRANCH   6  18
ATOM     18  O3  UNK     1      -4.469  40.914 228.041  1.00  0.00    -0.358 OA
ATOM     19  H11 UNK     1      -4.369  40.166 227.428  1.00  0.00     0.218 HD
ENDBRANCH   6  18
TORSDOF 7
ENDMDL
MODEL 7
REMARK VINA RESULT:      -6.2      3.080      5.075
REMARK  7 active torsions:
REMARK  status: ('A' for Active; 'I' for Inactive)
REMARK    1  A    between atoms: O1_1  and  C6_11 
REMARK    2  A    between atoms: O2_2  and  C7_12 
REMARK    3  A    between atoms: O3_3  and  C9_14 
REMARK    4  A    between atoms: N1_5  and  C2_7 
REMARK    5  A    between atoms: C1_6  and  C2_7 
REMARK    6  A    between atoms: C1_6  and  C3_8 
REMARK    7  A    between atoms: C2_7  and  C7_12 
ROOT
ATOM      1  C3  UNK     1       0.195  43.075 228.442  1.00  0.00    -0.053 A 
ATOM      2  C4  UNK     1      -0.110  42.341 229.576  1.00  0.00     0.046 A 
ATOM      3  C5  UNK     1      -0.712  43.213 227.406  1.00  0.00     0.010 A 
ATOM      4  C6  UNK     1      -1.358  41.727 229.676  1.00  0.00     0.099 A 
ATOM      5  C8  UNK     1      -1.960  42.599 227.505  1.00  0.00     0.040 A 
ATOM      6  C9  UNK     1      -2.283  41.856 228.641  1.00  0.00     0.098 A 
ENDROOT
BRANCH   1   7
ATOM      7  C1  UNK     1       1.549  43.739 228.333  1.00  0.00     0.085 C 
BRANCH   7   8
ATOM      8  C2  UNK     1       1.837  44.700 229.498  1.00  0.00     0.318 C 
BRANCH   8   9
ATOM      9  N1  UNK     1       1.924  46.071 228.998  1.00  0.00     0.093 N 
ATOM     10  H7  UNK     1       1.047  46.556 229.181  1.00  0.00     0.314 HD
ATOM     11  H8  UNK     1       2.030  46.062 227.984  1.00  0.00     0.314 HD
ENDBRANCH   8   9
BRANCH   8  12
ATOM     12  C7  UNK     1       3.164  44.398 230.173  1.00  0.00     0.174 C 
ATOM     13  O4  UNK     1       4.242  44.330 229.597  1.00  0.00    -0.648 OA
BRANCH  12  14
ATOM     14  O2  UNK     1       3.036  44.242 231.516  1.00  0.00    -0.775 OA
ATOM     15  H10 UNK     1       3.816  43.794 231.907  1.00  0.00     0.167 HD
ENDBRANCH  12  14
ENDBRANCH   8  12
ENDBRANCH   7   8
ENDBRANCH   1   7
BRANCH   4  16
ATOM     16  O1  UNK     1      -1.662  41.004 230.790  1.00  0.00    -0.358 OA
ATOM     17  H9  UNK     1      -2.601  41.148 231.002  1.00  0.00     0.218 HD
ENDBRANCH   4  16
BRANCH   6  18
ATOM     18  O3  UNK     1      -3.507  41.262 228.728  1.00  0.00    -0.358 OA
ATOM     19  H11 UNK     1      -4.155  41.917 229.038  1.00  0.00     0.218 HD
ENDBRANCH   6  18
TORSDOF 7
ENDMDL
MODEL 8
REMARK VINA RESULT:      -6.2      3.518      3.924
REMARK  7 active torsions:
REMARK  status: ('A' for Active; 'I' for Inactive)
REMARK    1  A    between atoms: O1_1  and  C6_11 
REMARK    2  A    between atoms: O2_2  and  C7_12 
REMARK    3  A    between atoms: O3_3  and  C9_14 
REMARK    4  A    between atoms: N1_5  and  C2_7 
REMARK    5  A    between atoms: C1_6  and  C2_7 
REMARK    6  A    between atoms: C1_6  and  C3_8 
REMARK    7  A    between atoms: C2_7  and  C7_12 
ROOT
ATOM      1  C3  UNK     1       0.131  42.598 228.647  1.00  0.00    -0.053 A 
ATOM      2  C4  UNK     1       0.269  43.412 229.758  1.00  0.00     0.046 A 
ATOM      3  C5  UNK     1       1.227  42.205 227.897  1.00  0.00     0.010 A 
ATOM      4  C6  UNK     1       1.541  43.848 230.130  1.00  0.00     0.099 A 
ATOM      5  C8  UNK     1       2.498  42.641 228.269  1.00  0.00     0.040 A 
ATOM      6  C9  UNK     1       2.656  43.462 229.386  1.00  0.00     0.098 A 
ENDROOT
BRANCH   1   7
ATOM      7  C1  UNK     1      -1.248  42.126 228.243  1.00  0.00     0.085 C 
BRANCH   7   8
ATOM      8  C2  UNK     1      -2.029  41.500 229.410  1.00  0.00     0.318 C 
BRANCH   8   9
ATOM      9  N1  UNK     1      -1.391  40.248 229.814  1.00  0.00     0.093 N 
ATOM     10  H7  UNK     1      -0.820  39.894 229.048  1.00  0.00     0.314 HD
ATOM     11  H8  UNK     1      -2.101  39.537 229.984  1.00  0.00     0.314 HD
ENDBRANCH   8   9
BRANCH   8  12
ATOM     12  C7  UNK     1      -3.456  41.154 229.022  1.00  0.00     0.174 C 
ATOM     13  O4  UNK     1      -3.876  41.103 227.873  1.00  0.00    -0.648 OA
BRANCH  12  14
ATOM     14  O2  UNK     1      -4.229  40.869 230.101  1.00  0.00    -0.775 OA
ATOM     15  H10 UNK     1      -3.728  40.390 230.794  1.00  0.00     0.167 HD
ENDBRANCH  12  14
ENDBRANCH   8  12
ENDBRANCH   7   8
ENDBRANCH   1   7
BRANCH   4  16
ATOM     16  O1  UNK     1       1.682  44.649 231.223  1.00  0.00    -0.358 OA
ATOM     17  H9  UNK     1       2.541  45.102 231.162  1.00  0.00     0.218 HD
ENDBRANCH   4  16
BRANCH   6  18
ATOM     18  O3  UNK     1       3.903  43.880 229.740  1.00  0.00    -0.358 OA
ATOM     19  H11 UNK     1       4.215  43.346 230.490  1.00  0.00     0.218 HD
ENDBRANCH   6  18
TORSDOF 7
ENDMDL
MODEL 9
REMARK VINA RESULT:      -5.9      4.054      5.193
REMARK  7 active torsions:
REMARK  status: ('A' for Active; 'I' for Inactive)
REMARK    1  A    between atoms: O1_1  and  C6_11 
REMARK    2  A    between atoms: O2_2  and  C7_12 
REMARK    3  A    between atoms: O3_3  and  C9_14 
REMARK    4  A    between atoms: N1_5  and  C2_7 
REMARK    5  A    between atoms: C1_6  and  C2_7 
REMARK    6  A    between atoms: C1_6  and  C3_8 
REMARK    7  A    between atoms: C2_7  and  C7_12 
ROOT
ATOM      1  C3  UNK     1      -0.036  41.752 229.004  1.00  0.00    -0.053 A 
ATOM      2  C4  UNK     1       0.962  41.741 228.046  1.00  0.00     0.046 A 
ATOM      3  C5  UNK     1      -0.455  42.930 229.599  1.00  0.00     0.010 A 
ATOM      4  C6  UNK     1       1.562  42.944 227.672  1.00  0.00     0.099 A 
ATOM      5  C8  UNK     1       0.143  44.132 229.225  1.00  0.00     0.040 A 
ATOM      6  C9  UNK     1       1.152  44.140 228.261  1.00  0.00     0.098 A 
ENDROOT
BRANCH   1   7
ATOM      7  C1  UNK     1      -0.685  40.447 229.411  1.00  0.00     0.085 C 
BRANCH   7   8
ATOM      8  C2  UNK     1      -1.919  40.648 230.305  1.00  0.00     0.318 C 
BRANCH   8   9
ATOM      9  N1  UNK     1      -1.801  39.817 231.502  1.00  0.00     0.093 N 
ATOM     10  H7  UNK     1      -2.547  39.123 231.510  1.00  0.00     0.314 HD
ATOM     11  H8  UNK     1      -1.944  40.388 232.334  1.00  0.00     0.314 HD
ENDBRANCH   8   9
BRANCH   8  12
ATOM     12  C7  UNK     1      -3.203  40.229 229.610  1.00  0.00     0.174 C 
ATOM     13  O4  UNK     1      -3.277  39.385 228.726  1.00  0.00    -0.648 OA
BRANCH  12  14
ATOM     14  O2  UNK     1      -4.291  40.875 230.102  1.00  0.00    -0.775 OA
ATOM     15  H10 UNK     1      -4.677  41.493 229.446  1.00  0.00     0.167 HD
ENDBRANCH  12  14
ENDBRANCH   8  12
ENDBRANCH   7   8
ENDBRANCH   1   7
BRANCH   4  16
ATOM     16  O1  UNK     1       2.545  42.938 226.729  1.00  0.00    -0.358 OA
ATOM     17  H9  UNK     1       2.305  42.295 226.039  1.00  0.00     0.218 HD
ENDBRANCH   4  16
BRANCH   6  18
ATOM     18  O3  UNK     1       1.728  45.321 227.903  1.00  0.00    -0.358 OA
ATOM     19  H11 UNK     1       1.781  45.897 228.684  1.00  0.00     0.218 HD
ENDBRANCH   6  18
TORSDOF 7
ENDMDL
