MODEL 1
REMARK VINA RESULT:      -5.4      0.000      0.000
REMARK  6 active torsions:
REMARK  status: ('A' for Active; 'I' for Inactive)
REMARK    1  A    between atoms: O1_1  and  C1_5 
REMARK    2  A    between atoms: O2_2  and  C5_9 
REMARK    3  A    between atoms: O3_3  and  C7_11 
REMARK    4  A    between atoms: N1_4  and  C2_6 
REMARK    5  A    between atoms: C1_5  and  C2_6 
REMARK    6  A    between atoms: C1_5  and  C3_7 
ROOT
ATOM      1  C3  UNK     1      -0.228  42.269 228.578  1.00  0.00     0.009 A 
ATOM      2  C5  UNK     1      -1.335  42.603 227.818  1.00  0.00     0.077 A 
ATOM      3  C6  UNK     1      -0.328  41.417 229.665  1.00  0.00     0.049 A 
ATOM      4  C7  UNK     1      -1.573  40.885 230.001  1.00  0.00     0.069 A 
ATOM      5  C8  UNK     1      -2.580  42.072 228.154  1.00  0.00     0.040 A 
ATOM      6  C9  UNK     1      -2.699  41.211 229.247  1.00  0.00     0.039 A 
ENDROOT
BRANCH   1   7
ATOM      7  C1  UNK     1       1.130  42.838 228.228  1.00  0.00     0.186 C 
BRANCH   7   8
ATOM      8  O1  UNK     1       1.347  42.566 226.841  1.00  0.00    -0.389 OA
ATOM      9  H10 UNK     1       1.169  41.625 226.676  1.00  0.00     0.210 HD
ENDBRANCH   7   8
BRANCH   7  10
ATOM     10  C2  UNK     1       1.255  44.355 228.496  1.00  0.00     0.247 C 
ATOM     11  C4  UNK     1       2.494  44.706 229.323  1.00  0.00     0.045 C 
BRANCH  10  12
ATOM     12  N1  UNK     1       1.344  45.076 227.220  1.00  0.00     0.085 N 
ATOM     13  H7  UNK     1       2.308  45.358 227.052  1.00  0.00     0.313 HD
ATOM     14  H8  UNK     1       0.804  45.940 227.275  1.00  0.00     0.313 HD
ENDBRANCH  10  12
ENDBRANCH   7  10
ENDBRANCH   1   7
BRANCH   2  15
ATOM     15  O2  UNK     1      -1.237  43.442 226.748  1.00  0.00    -0.355 OA
ATOM     16  C10 UNK     1      -1.972  43.088 225.578  1.00  0.00     0.210 C 
ENDBRANCH   2  15
BRANCH   4  17
ATOM     17  O3  UNK     1      -1.689  40.046 231.068  1.00  0.00    -0.356 OA
ATOM     18  C11 UNK     1      -1.311  38.684 230.867  1.00  0.00     0.210 C 
ENDBRANCH   4  17
TORSDOF 6
ENDMDL
MODEL 2
REMARK VINA RESULT:      -5.2      1.361      3.652
REMARK  6 active torsions:
REMARK  status: ('A' for Active; 'I' for Inactive)
REMARK    1  A    between atoms: O1_1  and  C1_5 
REMARK    2  A    between atoms: O2_2  and  C5_9 
REMARK    3  A    between atoms: O3_3  and  C7_11 
REMARK    4  A    between atoms: N1_4  and  C2_6 
REMARK    5  A    between atoms: C1_5  and  C2_6 
REMARK    6  A    between atoms: C1_5  and  C3_7 
ROOT
ATOM      1  C3  UNK     1      -0.934  42.875 227.759  1.00  0.00     0.009 A 
ATOM      2  C5  UNK     1      -1.585  42.147 228.739  1.00  0.00     0.077 A 
ATOM      3  C6  UNK     1      -1.542  43.164 226.549  1.00  0.00     0.049 A 
ATOM      4  C7  UNK     1      -2.840  42.709 226.313  1.00  0.00     0.069 A 
ATOM      5  C8  UNK     1      -2.882  41.692 228.504  1.00  0.00     0.040 A 
ATOM      6  C9  UNK     1      -3.510  41.973 227.290  1.00  0.00     0.039 A 
ENDROOT
BRANCH   1   7
ATOM      7  C1  UNK     1       0.474  43.375 227.997  1.00  0.00     0.186 C 
BRANCH   7   8
ATOM      8  O1  UNK     1       1.314  42.714 227.047  1.00  0.00    -0.389 OA
ATOM      9  H10 UNK     1       0.816  42.596 226.220  1.00  0.00     0.210 HD
ENDBRANCH   7   8
BRANCH   7  10
ATOM     10  C2  UNK     1       0.622  44.908 227.857  1.00  0.00     0.247 C 
ATOM     11  C4  UNK     1       1.102  45.572 229.149  1.00  0.00     0.045 C 
BRANCH  10  12
ATOM     12  N1  UNK     1       1.593  45.216 226.801  1.00  0.00     0.085 N 
ATOM     13  H7  UNK     1       1.266  46.013 226.257  1.00  0.00     0.313 HD
ATOM     14  H8  UNK     1       1.649  44.434 226.147  1.00  0.00     0.313 HD
ENDBRANCH  10  12
ENDBRANCH   7  10
ENDBRANCH   1   7
BRANCH   2  15
ATOM     15  O2  UNK     1      -0.987  41.863 229.931  1.00  0.00    -0.355 OA
ATOM     16  C10 UNK     1      -1.292  40.603 230.525  1.00  0.00     0.210 C 
ENDBRANCH   2  15
BRANCH   4  17
ATOM     17  O3  UNK     1      -3.453  42.983 225.128  1.00  0.00    -0.356 OA
ATOM     18  C11 UNK     1      -2.954  42.315 223.970  1.00  0.00     0.210 C 
ENDBRANCH   4  17
TORSDOF 6
ENDMDL
MODEL 3
REMARK VINA RESULT:      -4.9      2.253      4.555
REMARK  6 active torsions:
REMARK  status: ('A' for Active; 'I' for Inactive)
REMARK    1  A    between atoms: O1_1  and  C1_5 
REMARK    2  A    between atoms: O2_2  and  C5_9 
REMARK    3  A    between atoms: O3_3  and  C7_11 
REMARK    4  A    between atoms: N1_4  and  C2_6 
REMARK    5  A    between atoms: C1_5  and  C2_6 
REMARK    6  A    between atoms: C1_5  and  C3_7 
ROOT
ATOM      1  C3  UNK     1       0.070  42.941 229.162  1.00  0.00     0.009 A 
ATOM      2  C5  UNK     1      -0.399  43.522 227.996  1.00  0.00     0.077 A 
ATOM      3  C6  UNK     1       1.333  43.225 229.653  1.00  0.00     0.049 A 
ATOM      4  C7  UNK     1       2.150  44.116 228.958  1.00  0.00     0.069 A 
ATOM      5  C8  UNK     1       0.418  44.413 227.301  1.00  0.00     0.040 A 
ATOM      6  C9  UNK     1       1.694  44.710 227.782  1.00  0.00     0.039 A 
ENDROOT
BRANCH   1   7
ATOM      7  C1  UNK     1      -0.803  41.971 229.929  1.00  0.00     0.186 C 
BRANCH   7   8
ATOM      8  O1  UNK     1      -2.003  42.672 230.264  1.00  0.00    -0.389 OA
ATOM      9  H10 UNK     1      -2.114  43.415 229.647  1.00  0.00     0.210 HD
ENDBRANCH   7   8
BRANCH   7  10
ATOM     10  C2  UNK     1      -1.144  40.686 229.140  1.00  0.00     0.247 C 
ATOM     11  C4  UNK     1      -0.821  39.412 229.924  1.00  0.00     0.045 C 
BRANCH  10  12
ATOM     12  N1  UNK     1      -2.576  40.670 228.819  1.00  0.00     0.085 N 
ATOM     13  H7  UNK     1      -2.804  41.466 228.225  1.00  0.00     0.313 HD
ATOM     14  H8  UNK     1      -3.121  40.793 229.673  1.00  0.00     0.313 HD
ENDBRANCH  10  12
ENDBRANCH   7  10
ENDBRANCH   1   7
BRANCH   2  15
ATOM     15  O2  UNK     1      -1.642  43.242 227.512  1.00  0.00    -0.355 OA
ATOM     16  C10 UNK     1      -1.761  43.050 226.104  1.00  0.00     0.210 C 
ENDBRANCH   2  15
BRANCH   4  17
ATOM     17  O3  UNK     1       3.395  44.407 229.427  1.00  0.00    -0.356 OA
ATOM     18  C11 UNK     1       3.726  43.929 230.730  1.00  0.00     0.210 C 
ENDBRANCH   4  17
TORSDOF 6
ENDMDL
MODEL 4
REMARK VINA RESULT:      -4.7      7.655      9.508
REMARK  6 active torsions:
REMARK  status: ('A' for Active; 'I' for Inactive)
REMARK    1  A    between atoms: O1_1  and  C1_5 
REMARK    2  A    between atoms: O2_2  and  C5_9 
REMARK    3  A    between atoms: O3_3  and  C7_11 
REMARK    4  A    between atoms: N1_4  and  C2_6 
REMARK    5  A    between atoms: C1_5  and  C2_6 
REMARK    6  A    between atoms: C1_5  and  C3_7 
ROOT
ATOM      1  C3  UNK     1       1.027  38.170 235.688  1.00  0.00     0.009 A 
ATOM      2  C5  UNK     1      -0.083  37.446 236.088  1.00  0.00     0.077 A 
ATOM      3  C6  UNK     1       1.572  38.019 234.425  1.00  0.00     0.049 A 
ATOM      4  C7  UNK     1       0.989  37.117 233.535  1.00  0.00     0.069 A 
ATOM      5  C8  UNK     1      -0.666  36.544 235.198  1.00  0.00     0.040 A 
ATOM      6  C9  UNK     1      -0.130  36.380 233.920  1.00  0.00     0.039 A 
ENDROOT
BRANCH   1   7
ATOM      7  C1  UNK     1       1.673  39.152 236.642  1.00  0.00     0.186 C 
BRANCH   7   8
ATOM      8  O1  UNK     1       0.718  40.191 236.875  1.00  0.00    -0.389 OA
ATOM      9  H10 UNK     1       1.171  41.049 236.821  1.00  0.00     0.210 HD
ENDBRANCH   7   8
BRANCH   7  10
ATOM     10  C2  UNK     1       2.105  38.520 237.985  1.00  0.00     0.247 C 
ATOM     11  C4  UNK     1       3.559  38.836 238.342  1.00  0.00     0.045 C 
BRANCH  10  12
ATOM     12  N1  UNK     1       1.252  39.029 239.067  1.00  0.00     0.085 N 
ATOM     13  H7  UNK     1       1.328  40.044 239.115  1.00  0.00     0.313 HD
ATOM     14  H8  UNK     1       1.591  38.680 239.964  1.00  0.00     0.313 HD
ENDBRANCH  10  12
ENDBRANCH   7  10
ENDBRANCH   1   7
BRANCH   2  15
ATOM     15  O2  UNK     1      -0.620  37.594 237.332  1.00  0.00    -0.355 OA
ATOM     16  C10 UNK     1      -1.274  36.458 237.895  1.00  0.00     0.210 C 
ENDBRANCH   2  15
BRANCH   4  17
ATOM     17  O3  UNK     1       1.513  36.956 232.288  1.00  0.00    -0.356 OA
ATOM     18  C11 UNK     1       0.678  36.343 231.307  1.00  0.00     0.210 C 
ENDBRANCH   4  17
TORSDOF 6
ENDMDL
MODEL 5
REMARK VINA RESULT:      -4.7      9.062     10.821
REMARK  6 active torsions:
REMARK  status: ('A' for Active; 'I' for Inactive)
REMARK    1  A    between atoms: O1_1  and  C1_5 
REMARK    2  A    between atoms: O2_2  and  C5_9 
REMARK    3  A    between atoms: O3_3  and  C7_11 
REMARK    4  A    between atoms: N1_4  and  C2_6 
REMARK    5  A    between atoms: C1_5  and  C2_6 
REMARK    6  A    between atoms: C1_5  and  C3_7 
ROOT
ATOM      1  C3  UNK     1       2.301  36.563 236.754  1.00  0.00     0.009 A 
ATOM      2  C5  UNK     1       1.771  35.735 235.780  1.00  0.00     0.077 A 
ATOM      3  C6  UNK     1       3.003  36.053 237.833  1.00  0.00     0.049 A 
ATOM      4  C7  UNK     1       3.180  34.673 237.940  1.00  0.00     0.069 A 
ATOM      5  C8  UNK     1       1.947  34.356 235.886  1.00  0.00     0.040 A 
ATOM      6  C9  UNK     1       2.652  33.825 236.967  1.00  0.00     0.039 A 
ENDROOT
BRANCH   1   7
ATOM      7  C1  UNK     1       2.118  38.063 236.655  1.00  0.00     0.186 C 
BRANCH   7   8
ATOM      8  O1  UNK     1       2.525  38.442 235.337  1.00  0.00    -0.389 OA
ATOM      9  H10 UNK     1       3.445  38.158 235.201  1.00  0.00     0.210 HD
ENDBRANCH   7   8
BRANCH   7  10
ATOM     10  C2  UNK     1       0.668  38.530 236.914  1.00  0.00     0.247 C 
ATOM     11  C4  UNK     1       0.599  39.748 237.838  1.00  0.00     0.045 C 
BRANCH  10  12
ATOM     12  N1  UNK     1       0.029  38.889 235.642  1.00  0.00     0.085 N 
ATOM     13  H7  UNK     1      -0.983  38.818 235.734  1.00  0.00     0.313 HD
ATOM     14  H8  UNK     1       0.294  38.215 234.923  1.00  0.00     0.313 HD
ENDBRANCH  10  12
ENDBRANCH   7  10
ENDBRANCH   1   7
BRANCH   2  15
ATOM     15  O2  UNK     1       1.079  36.237 234.718  1.00  0.00    -0.355 OA
ATOM     16  C10 UNK     1       0.372  35.303 233.905  1.00  0.00     0.210 C 
ENDBRANCH   2  15
BRANCH   4  17
ATOM     17  O3  UNK     1       3.867  34.155 238.994  1.00  0.00    -0.356 OA
ATOM     18  C11 UNK     1       3.305  33.011 239.637  1.00  0.00     0.210 C 
ENDBRANCH   4  17
TORSDOF 6
ENDMDL
MODEL 6
REMARK VINA RESULT:      -4.7      9.351     11.145
REMARK  6 active torsions:
REMARK  status: ('A' for Active; 'I' for Inactive)
REMARK    1  A    between atoms: O1_1  and  C1_5 
REMARK    2  A    between atoms: O2_2  and  C5_9 
REMARK    3  A    between atoms: O3_3  and  C7_11 
REMARK    4  A    between atoms: N1_4  and  C2_6 
REMARK    5  A    between atoms: C1_5  and  C2_6 
REMARK    6  A    between atoms: C1_5  and  C3_7 
ROOT
ATOM      1  C3  UNK     1       2.375  36.553 236.692  1.00  0.00     0.009 A 
ATOM      2  C5  UNK     1       3.208  36.071 237.686  1.00  0.00     0.077 A 
ATOM      3  C6  UNK     1       1.701  35.698 235.837  1.00  0.00     0.049 A 
ATOM      4  C7  UNK     1       1.866  34.320 235.981  1.00  0.00     0.069 A 
ATOM      5  C8  UNK     1       3.373  34.694 237.831  1.00  0.00     0.040 A 
ATOM      6  C9  UNK     1       2.701  33.818 236.978  1.00  0.00     0.039 A 
ENDROOT
BRANCH   1   7
ATOM      7  C1  UNK     1       2.185  38.045 236.520  1.00  0.00     0.186 C 
BRANCH   7   8
ATOM      8  O1  UNK     1       2.529  38.351 235.166  1.00  0.00    -0.389 OA
ATOM      9  H10 UNK     1       2.706  39.305 235.097  1.00  0.00     0.210 HD
ENDBRANCH   7   8
BRANCH   7  10
ATOM     10  C2  UNK     1       0.749  38.527 236.823  1.00  0.00     0.247 C 
ATOM     11  C4  UNK     1       0.720  39.735 237.762  1.00  0.00     0.045 C 
BRANCH  10  12
ATOM     12  N1  UNK     1       0.082  38.909 235.572  1.00  0.00     0.085 N 
ATOM     13  H7  UNK     1      -0.792  38.393 235.478  1.00  0.00     0.313 HD
ATOM     14  H8  UNK     1       0.658  38.632 234.777  1.00  0.00     0.313 HD
ENDBRANCH  10  12
ENDBRANCH   7  10
ENDBRANCH   1   7
BRANCH   2  15
ATOM     15  O2  UNK     1       3.873  36.913 238.528  1.00  0.00    -0.355 OA
ATOM     16  C10 UNK     1       3.352  37.052 239.849  1.00  0.00     0.210 C 
ENDBRANCH   2  15
BRANCH   4  17
ATOM     17  O3  UNK     1       1.210  33.465 235.149  1.00  0.00    -0.356 OA
ATOM     18  C11 UNK     1       1.891  32.266 234.782  1.00  0.00     0.210 C 
ENDBRANCH   4  17
TORSDOF 6
ENDMDL
MODEL 7
REMARK VINA RESULT:      -4.6      8.681     10.273
REMARK  6 active torsions:
REMARK  status: ('A' for Active; 'I' for Inactive)
REMARK    1  A    between atoms: O1_1  and  C1_5 
REMARK    2  A    between atoms: O2_2  and  C5_9 
REMARK    3  A    between atoms: O3_3  and  C7_11 
REMARK    4  A    between atoms: N1_4  and  C2_6 
REMARK    5  A    between atoms: C1_5  and  C2_6 
REMARK    6  A    between atoms: C1_5  and  C3_7 
ROOT
ATOM      1  C3  UNK     1       2.008  36.578 236.206  1.00  0.00     0.009 A 
ATOM      2  C5  UNK     1       0.955  36.280 235.357  1.00  0.00     0.077 A 
ATOM      3  C6  UNK     1       2.803  35.584 236.749  1.00  0.00     0.049 A 
ATOM      4  C7  UNK     1       2.538  34.251 236.434  1.00  0.00     0.069 A 
ATOM      5  C8  UNK     1       0.690  34.948 235.042  1.00  0.00     0.040 A 
ATOM      6  C9  UNK     1       1.482  33.932 235.581  1.00  0.00     0.039 A 
ENDROOT
BRANCH   1   7
ATOM      7  C1  UNK     1       2.309  38.019 236.559  1.00  0.00     0.186 C 
BRANCH   7   8
ATOM      8  O1  UNK     1       2.367  38.743 235.327  1.00  0.00    -0.389 OA
ATOM      9  H10 UNK     1       1.460  38.921 235.027  1.00  0.00     0.210 HD
ENDBRANCH   7   8
BRANCH   7  10
ATOM     10  C2  UNK     1       1.263  38.659 237.500  1.00  0.00     0.247 C 
ATOM     11  C4  UNK     1       1.863  39.087 238.841  1.00  0.00     0.045 C 
BRANCH  10  12
ATOM     12  N1  UNK     1       0.688  39.849 236.861  1.00  0.00     0.085 N 
ATOM     13  H7  UNK     1       1.188  40.681 237.171  1.00  0.00     0.313 HD
ATOM     14  H8  UNK     1      -0.277  39.972 237.170  1.00  0.00     0.313 HD
ENDBRANCH  10  12
ENDBRANCH   7  10
ENDBRANCH   1   7
BRANCH   2  15
ATOM     15  O2  UNK     1       0.172  37.258 234.823  1.00  0.00    -0.355 OA
ATOM     16  C10 UNK     1      -1.234  37.156 235.043  1.00  0.00     0.210 C 
ENDBRANCH   2  15
BRANCH   4  17
ATOM     17  O3  UNK     1       3.310  33.260 236.959  1.00  0.00    -0.356 OA
ATOM     18  C11 UNK     1       3.528  32.107 236.148  1.00  0.00     0.210 C 
ENDBRANCH   4  17
TORSDOF 6
ENDMDL
MODEL 8
REMARK VINA RESULT:      -4.6      9.116     12.159
REMARK  6 active torsions:
REMARK  status: ('A' for Active; 'I' for Inactive)
REMARK    1  A    between atoms: O1_1  and  C1_5 
REMARK    2  A    between atoms: O2_2  and  C5_9 
REMARK    3  A    between atoms: O3_3  and  C7_11 
REMARK    4  A    between atoms: N1_4  and  C2_6 
REMARK    5  A    between atoms: C1_5  and  C2_6 
REMARK    6  A    between atoms: C1_5  and  C3_7 
ROOT
ATOM      1  C3  UNK     1       3.004  36.386 237.548  1.00  0.00     0.009 A 
ATOM      2  C5  UNK     1       3.412  37.250 238.550  1.00  0.00     0.077 A 
ATOM      3  C6  UNK     1       2.349  36.847 236.419  1.00  0.00     0.049 A 
ATOM      4  C7  UNK     1       2.095  38.212 236.288  1.00  0.00     0.069 A 
ATOM      5  C8  UNK     1       3.158  38.615 238.420  1.00  0.00     0.040 A 
ATOM      6  C9  UNK     1       2.499  39.096 237.288  1.00  0.00     0.039 A 
ENDROOT
BRANCH   1   7
ATOM      7  C1  UNK     1       3.271  34.901 237.675  1.00  0.00     0.186 C 
BRANCH   7   8
ATOM      8  O1  UNK     1       2.804  34.507 238.967  1.00  0.00    -0.389 OA
ATOM      9  H10 UNK     1       3.505  34.678 239.618  1.00  0.00     0.210 HD
ENDBRANCH   7   8
BRANCH   7  10
ATOM     10  C2  UNK     1       2.583  34.052 236.582  1.00  0.00     0.247 C 
ATOM     11  C4  UNK     1       3.434  32.858 236.143  1.00  0.00     0.045 C 
BRANCH  10  12
ATOM     12  N1  UNK     1       1.305  33.536 237.088  1.00  0.00     0.085 N 
ATOM     13  H7  UNK     1       0.988  32.767 236.500  1.00  0.00     0.313 HD
ATOM     14  H8  UNK     1       0.589  34.260 237.013  1.00  0.00     0.313 HD
ENDBRANCH  10  12
ENDBRANCH   7  10
ENDBRANCH   1   7
BRANCH   2  15
ATOM     15  O2  UNK     1       4.056  36.797 239.663  1.00  0.00    -0.355 OA
ATOM     16  C10 UNK     1       4.276  37.737 240.712  1.00  0.00     0.210 C 
ENDBRANCH   2  15
BRANCH   4  17
ATOM     17  O3  UNK     1       1.452  38.682 235.184  1.00  0.00    -0.356 OA
ATOM     18  C11 UNK     1       0.202  38.079 234.854  1.00  0.00     0.210 C 
ENDBRANCH   4  17
TORSDOF 6
ENDMDL
MODEL 9
REMARK VINA RESULT:      -4.5      2.215      3.959
REMARK  6 active torsions:
REMARK  status: ('A' for Active; 'I' for Inactive)
REMARK    1  A    between atoms: O1_1  and  C1_5 
REMARK    2  A    between atoms: O2_2  and  C5_9 
REMARK    3  A    between atoms: O3_3  and  C7_11 
REMARK    4  A    between atoms: N1_4  and  C2_6 
REMARK    5  A    between atoms: C1_5  and  C2_6 
REMARK    6  A    between atoms: C1_5  and  C3_7 
ROOT
ATOM      1  C3  UNK     1      -2.008  42.742 227.572  1.00  0.00     0.009 A 
ATOM      2  C5  UNK     1      -0.761  43.102 228.055  1.00  0.00     0.077 A 
ATOM      3  C6  UNK     1      -2.763  41.756 228.184  1.00  0.00     0.049 A 
ATOM      4  C7  UNK     1      -2.256  41.111 229.312  1.00  0.00     0.069 A 
ATOM      5  C8  UNK     1      -0.254  42.457 229.182  1.00  0.00     0.040 A 
ATOM      6  C9  UNK     1      -1.002  41.461 229.811  1.00  0.00     0.039 A 
ENDROOT
BRANCH   1   7
ATOM      7  C1  UNK     1      -2.573  43.431 226.348  1.00  0.00     0.186 C 
BRANCH   7   8
ATOM      8  O1  UNK     1      -1.658  43.186 225.277  1.00  0.00    -0.389 OA
ATOM      9  H10 UNK     1      -2.119  42.689 224.580  1.00  0.00     0.210 HD
ENDBRANCH   7   8
BRANCH   7  10
ATOM     10  C2  UNK     1      -3.987  42.944 225.959  1.00  0.00     0.247 C 
ATOM     11  C4  UNK     1      -5.024  44.068 225.986  1.00  0.00     0.045 C 
BRANCH  10  12
ATOM     12  N1  UNK     1      -3.960  42.385 224.601  1.00  0.00     0.085 N 
ATOM     13  H7  UNK     1      -4.894  42.423 224.196  1.00  0.00     0.313 HD
ATOM     14  H8  UNK     1      -3.712  41.396 224.642  1.00  0.00     0.313 HD
ENDBRANCH  10  12
ENDBRANCH   7  10
ENDBRANCH   1   7
BRANCH   2  15
ATOM     15  O2  UNK     1      -0.017  44.072 227.452  1.00  0.00    -0.355 OA
ATOM     16  C10 UNK     1       0.543  45.077 228.296  1.00  0.00     0.210 C 
ENDBRANCH   2  15
BRANCH   4  17
ATOM     17  O3  UNK     1      -2.985  40.139 229.926  1.00  0.00    -0.356 OA
ATOM     18  C11 UNK     1      -4.270  39.847 229.378  1.00  0.00     0.210 C 
ENDBRANCH   4  17
TORSDOF 6
ENDMDL
