MODEL 1
REMARK VINA RESULT:      -7.6      0.000      0.000
REMARK  3 active torsions:
REMARK  status: ('A' for Active; 'I' for Inactive)
REMARK    1  A    between atoms: O1_1  and  C5_9 
REMARK    2  A    between atoms: O1_1  and  C23_27 
REMARK    3  A    between atoms: C5_9  and  C17_21 
ROOT
ATOM      1  O3  UNK     1       0.922  32.667 227.513  1.00  0.00    -0.293 OA
ATOM      2  C1  UNK     1       0.525  36.981 234.767  1.00  0.00    -0.001 C 
ATOM      3  C2  UNK     1       0.421  35.445 234.608  1.00  0.00     0.002 C 
ATOM      4  C3  UNK     1      -0.292  35.019 233.318  1.00  0.00    -0.004 C 
ATOM      5  C4  UNK     1       0.489  35.584 232.096  1.00  0.00     0.002 C 
ATOM      6  C5  UNK     1       1.187  37.051 236.166  1.00  0.00     0.138 C 
ATOM      7  C6  UNK     1      -0.145  35.160 230.715  1.00  0.00    -0.016 C 
ATOM      8  C7  UNK     1       1.356  37.510 233.587  1.00  0.00     0.013 C 
ATOM      9  C8  UNK     1       0.744  37.110 232.233  1.00  0.00     0.007 C 
ATOM     10  C9  UNK     1      -0.150  34.988 235.947  1.00  0.00     0.009 C 
ATOM     11  C10 UNK     1      -0.397  33.493 233.216  1.00  0.00     0.014 C 
ATOM     12  C11 UNK     1       0.474  35.948 236.979  1.00  0.00     0.048 C 
ATOM     13  C12 UNK     1      -1.102  33.064 231.922  1.00  0.00     0.012 C 
ATOM     14  C13 UNK     1      -0.383  33.634 230.697  1.00  0.00    -0.064 C 
ATOM     15  C14 UNK     1      -0.858  37.690 234.792  1.00  0.00     0.019 C 
ATOM     16  C15 UNK     1       0.852  35.571 229.589  1.00  0.00     0.022 C 
ATOM     17  C16 UNK     1      -1.496  35.866 230.458  1.00  0.00     0.020 C 
ATOM     18  C18 UNK     1       0.565  34.914 228.252  1.00  0.00     0.084 C 
ATOM     19  C19 UNK     1      -0.015  32.857 229.660  1.00  0.00     0.054 C 
ATOM     20  C20 UNK     1      -1.300  31.541 231.949  1.00  0.00     0.015 C 
ATOM     21  C21 UNK     1       0.550  33.420 228.412  1.00  0.00     0.149 C 
ENDROOT
BRANCH   6  22
ATOM     22  O1  UNK     1       2.580  36.756 236.089  1.00  0.00    -0.302 OA
BRANCH  22  23
ATOM     23  C23 UNK     1       3.119  36.153 237.190  1.00  0.00     0.256 C 
ATOM     24  O4  UNK     1       3.391  36.697 238.251  1.00  0.00    -0.266 OA
ATOM     25  C24 UNK     1       3.334  34.695 236.915  1.00  0.00     0.126 C 
ENDBRANCH  22  23
ENDBRANCH   6  22
BRANCH   6  26
ATOM     26  C17 UNK     1       1.126  38.397 236.823  1.00  0.00     0.158 C 
ATOM     27  O2  UNK     1       1.738  39.364 236.372  1.00  0.00    -0.295 OA
ATOM     28  C22 UNK     1       0.281  38.507 238.063  1.00  0.00     0.094 C 
ENDBRANCH   6  26
TORSDOF 3
ENDMDL
MODEL 2
REMARK VINA RESULT:      -6.8      2.539      7.537
REMARK  3 active torsions:
REMARK  status: ('A' for Active; 'I' for Inactive)
REMARK    1  A    between atoms: O1_1  and  C5_9 
REMARK    2  A    between atoms: O1_1  and  C23_27 
REMARK    3  A    between atoms: C5_9  and  C17_21 
ROOT
ATOM      1  O3  UNK     1       1.196  39.378 239.009  1.00  0.00    -0.293 OA
ATOM      2  C1  UNK     1      -0.503  36.208 231.365  1.00  0.00    -0.001 C 
ATOM      3  C2  UNK     1      -1.529  36.483 232.490  1.00  0.00     0.002 C 
ATOM      4  C3  UNK     1      -0.963  36.234 233.894  1.00  0.00    -0.004 C 
ATOM      5  C4  UNK     1       0.266  37.162 234.118  1.00  0.00     0.002 C 
ATOM      6  C5  UNK     1      -1.405  36.457 230.129  1.00  0.00     0.138 C 
ATOM      7  C6  UNK     1       0.894  37.011 235.558  1.00  0.00    -0.016 C 
ATOM      8  C7  UNK     1       0.670  37.180 231.565  1.00  0.00     0.013 C 
ATOM      9  C8  UNK     1       1.297  37.038 232.963  1.00  0.00     0.007 C 
ATOM     10  C9  UNK     1      -2.761  35.700 232.047  1.00  0.00     0.009 C 
ATOM     11  C10 UNK     1      -2.020  36.492 234.976  1.00  0.00     0.014 C 
ATOM     12  C11 UNK     1      -2.757  35.815 230.509  1.00  0.00     0.048 C 
ATOM     13  C12 UNK     1      -1.454  36.253 236.382  1.00  0.00     0.012 C 
ATOM     14  C13 UNK     1      -0.218  37.121 236.625  1.00  0.00    -0.064 C 
ATOM     15  C14 UNK     1       0.023  34.746 231.358  1.00  0.00     0.019 C 
ATOM     16  C15 UNK     1       1.942  38.151 235.740  1.00  0.00     0.022 C 
ATOM     17  C16 UNK     1       1.608  35.652 235.738  1.00  0.00     0.020 C 
ATOM     18  C18 UNK     1       2.362  38.366 237.183  1.00  0.00     0.084 C 
ATOM     19  C19 UNK     1      -0.098  37.902 237.716  1.00  0.00     0.054 C 
ATOM     20  C20 UNK     1      -2.594  36.389 237.403  1.00  0.00     0.015 C 
ATOM     21  C21 UNK     1       1.152  38.634 238.031  1.00  0.00     0.149 C 
ENDROOT
BRANCH   6  22
ATOM     22  O1  UNK     1      -1.591  37.853 229.903  1.00  0.00    -0.302 OA
BRANCH  22  23
ATOM     23  C23 UNK     1      -2.819  38.217 229.429  1.00  0.00     0.256 C 
ATOM     24  O4  UNK     1      -3.292  37.917 228.342  1.00  0.00    -0.266 OA
ATOM     25  C24 UNK     1      -3.529  39.052 230.452  1.00  0.00     0.126 C 
ENDBRANCH  22  23
ENDBRANCH   6  22
BRANCH   6  26
ATOM     26  C17 UNK     1      -0.853  35.941 228.834  1.00  0.00     0.158 C 
ATOM     27  O2  UNK     1       0.141  36.440 228.311  1.00  0.00    -0.295 OA
ATOM     28  C22 UNK     1      -1.576  34.781 228.206  1.00  0.00     0.094 C 
ENDBRANCH   6  26
TORSDOF 3
ENDMDL
MODEL 3
REMARK VINA RESULT:      -6.8      3.013      4.859
REMARK  3 active torsions:
REMARK  status: ('A' for Active; 'I' for Inactive)
REMARK    1  A    between atoms: O1_1  and  C5_9 
REMARK    2  A    between atoms: O1_1  and  C23_27 
REMARK    3  A    between atoms: C5_9  and  C17_21 
ROOT
ATOM      1  O3  UNK     1      -3.639  39.028 231.695  1.00  0.00    -0.293 OA
ATOM      2  C1  UNK     1       0.816  35.335 237.850  1.00  0.00    -0.001 C 
ATOM      3  C2  UNK     1       1.390  35.978 236.566  1.00  0.00     0.002 C 
ATOM      4  C3  UNK     1       0.479  35.798 235.344  1.00  0.00    -0.004 C 
ATOM      5  C4  UNK     1      -0.903  36.449 235.640  1.00  0.00     0.002 C 
ATOM      6  C5  UNK     1       1.990  35.614 238.823  1.00  0.00     0.138 C 
ATOM      7  C6  UNK     1      -1.899  36.353 234.419  1.00  0.00    -0.016 C 
ATOM      8  C7  UNK     1      -0.515  36.038 238.162  1.00  0.00     0.013 C 
ATOM      9  C8  UNK     1      -1.499  35.946 236.983  1.00  0.00     0.007 C 
ATOM     10  C9  UNK     1       2.815  35.439 236.503  1.00  0.00     0.009 C 
ATOM     11  C10 UNK     1       1.099  36.426 234.089  1.00  0.00     0.014 C 
ATOM     12  C11 UNK     1       3.255  35.346 237.978  1.00  0.00     0.048 C 
ATOM     13  C12 UNK     1       0.186  36.254 232.867  1.00  0.00     0.012 C 
ATOM     14  C13 UNK     1      -1.199  36.849 233.135  1.00  0.00    -0.064 C 
ATOM     15  C14 UNK     1       0.581  33.804 237.718  1.00  0.00     0.019 C 
ATOM     16  C15 UNK     1      -3.136  37.244 234.747  1.00  0.00     0.022 C 
ATOM     17  C16 UNK     1      -2.385  34.906 234.181  1.00  0.00     0.020 C 
ATOM     18  C18 UNK     1      -4.003  37.549 233.538  1.00  0.00     0.084 C 
ATOM     19  C19 UNK     1      -1.777  37.720 232.287  1.00  0.00     0.054 C 
ATOM     20  C20 UNK     1       0.922  36.775 231.623  1.00  0.00     0.015 C 
ATOM     21  C21 UNK     1      -3.172  38.190 232.464  1.00  0.00     0.149 C 
ENDROOT
BRANCH   6  22
ATOM     22  O1  UNK     1       1.988  36.973 239.254  1.00  0.00    -0.302 OA
BRANCH  22  23
ATOM     23  C23 UNK     1       3.218  37.536 239.440  1.00  0.00     0.256 C 
ATOM     24  O4  UNK     1       4.057  37.186 240.259  1.00  0.00    -0.266 OA
ATOM     25  C24 UNK     1       3.407  38.671 238.479  1.00  0.00     0.126 C 
ENDBRANCH  22  23
ENDBRANCH   6  22
BRANCH   6  26
ATOM     26  C17 UNK     1       1.955  34.820 240.095  1.00  0.00     0.158 C 
ATOM     27  O2  UNK     1       1.073  34.988 240.935  1.00  0.00    -0.295 OA
ATOM     28  C22 UNK     1       3.050  33.809 240.292  1.00  0.00     0.094 C 
ENDBRANCH   6  26
TORSDOF 3
ENDMDL
MODEL 4
REMARK VINA RESULT:      -6.7      2.936      7.151
REMARK  3 active torsions:
REMARK  status: ('A' for Active; 'I' for Inactive)
REMARK    1  A    between atoms: O1_1  and  C5_9 
REMARK    2  A    between atoms: O1_1  and  C23_27 
REMARK    3  A    between atoms: C5_9  and  C17_21 
ROOT
ATOM      1  O3  UNK     1       3.361  34.841 241.395  1.00  0.00    -0.293 OA
ATOM      2  C1  UNK     1       0.063  36.961 233.911  1.00  0.00    -0.001 C 
ATOM      3  C2  UNK     1       0.289  35.524 234.437  1.00  0.00     0.002 C 
ATOM      4  C3  UNK     1       1.550  35.391 235.302  1.00  0.00    -0.004 C 
ATOM      5  C4  UNK     1       1.429  36.345 236.526  1.00  0.00     0.002 C 
ATOM      6  C5  UNK     1      -1.191  36.719 233.034  1.00  0.00     0.138 C 
ATOM      7  C6  UNK     1       2.664  36.246 237.503  1.00  0.00    -0.016 C 
ATOM      8  C7  UNK     1      -0.120  37.875 235.133  1.00  0.00     0.013 C 
ATOM      9  C8  UNK     1       1.081  37.795 236.092  1.00  0.00     0.007 C 
ATOM     10  C9  UNK     1       0.166  34.663 233.184  1.00  0.00     0.009 C 
ATOM     11  C10 UNK     1       1.750  33.946 235.778  1.00  0.00     0.014 C 
ATOM     12  C11 UNK     1      -0.913  35.368 232.339  1.00  0.00     0.048 C 
ATOM     13  C12 UNK     1       3.006  33.812 236.651  1.00  0.00     0.012 C 
ATOM     14  C13 UNK     1       2.941  34.766 237.846  1.00  0.00    -0.064 C 
ATOM     15  C14 UNK     1       1.236  37.486 233.037  1.00  0.00     0.019 C 
ATOM     16  C15 UNK     1       2.314  37.050 238.792  1.00  0.00     0.022 C 
ATOM     17  C16 UNK     1       3.944  36.849 236.881  1.00  0.00     0.020 C 
ATOM     18  C18 UNK     1       3.233  36.753 239.964  1.00  0.00     0.084 C 
ATOM     19  C19 UNK     1       3.146  34.342 239.108  1.00  0.00     0.054 C 
ATOM     20  C20 UNK     1       3.225  32.327 236.975  1.00  0.00     0.015 C 
ATOM     21  C21 UNK     1       3.227  35.279 240.254  1.00  0.00     0.149 C 
ENDROOT
BRANCH   6  22
ATOM     22  O1  UNK     1      -2.364  36.605 233.836  1.00  0.00    -0.302 OA
BRANCH  22  23
ATOM     23  C23 UNK     1      -3.333  35.772 233.354  1.00  0.00     0.256 C 
ATOM     24  O4  UNK     1      -4.016  35.959 232.357  1.00  0.00    -0.266 OA
ATOM     25  C24 UNK     1      -3.445  34.563 234.234  1.00  0.00     0.126 C 
ENDBRANCH  22  23
ENDBRANCH   6  22
BRANCH   6  26
ATOM     26  C17 UNK     1      -1.506  37.822 232.069  1.00  0.00     0.158 C 
ATOM     27  O2  UNK     1      -1.892  38.925 232.453  1.00  0.00    -0.295 OA
ATOM     28  C22 UNK     1      -1.325  37.514 230.607  1.00  0.00     0.094 C 
ENDBRANCH   6  26
TORSDOF 3
ENDMDL
MODEL 5
REMARK VINA RESULT:      -6.7      2.181      4.005
REMARK  3 active torsions:
REMARK  status: ('A' for Active; 'I' for Inactive)
REMARK    1  A    between atoms: O1_1  and  C5_9 
REMARK    2  A    between atoms: O1_1  and  C23_27 
REMARK    3  A    between atoms: C5_9  and  C17_21 
ROOT
ATOM      1  O3  UNK     1      -4.039  34.726 230.524  1.00  0.00    -0.293 OA
ATOM      2  C1  UNK     1       1.570  35.715 236.764  1.00  0.00    -0.001 C 
ATOM      3  C2  UNK     1       1.389  36.645 235.541  1.00  0.00     0.002 C 
ATOM      4  C3  UNK     1       0.998  35.890 234.263  1.00  0.00    -0.004 C 
ATOM      5  C4  UNK     1      -0.343  35.139 234.508  1.00  0.00     0.002 C 
ATOM      6  C5  UNK     1       2.038  36.757 237.811  1.00  0.00     0.138 C 
ATOM      7  C6  UNK     1      -0.853  34.365 233.231  1.00  0.00    -0.016 C 
ATOM      8  C7  UNK     1       0.218  35.035 237.029  1.00  0.00     0.013 C 
ATOM      9  C8  UNK     1      -0.288  34.269 235.794  1.00  0.00     0.007 C 
ATOM     10  C9  UNK     1       2.666  37.480 235.536  1.00  0.00     0.009 C 
ATOM     11  C10 UNK     1       0.856  36.845 233.071  1.00  0.00     0.014 C 
ATOM     12  C11 UNK     1       3.000  37.677 237.029  1.00  0.00     0.048 C 
ATOM     13  C12 UNK     1       0.456  36.094 231.794  1.00  0.00     0.012 C 
ATOM     14  C13 UNK     1      -0.841  35.310 232.009  1.00  0.00    -0.064 C 
ATOM     15  C14 UNK     1       2.668  34.634 236.556  1.00  0.00     0.019 C 
ATOM     16  C15 UNK     1      -2.302  33.869 233.524  1.00  0.00     0.022 C 
ATOM     17  C16 UNK     1       0.030  33.138 232.906  1.00  0.00     0.020 C 
ATOM     18  C18 UNK     1      -3.060  33.434 232.283  1.00  0.00     0.084 C 
ATOM     19  C19 UNK     1      -1.886  35.415 231.166  1.00  0.00     0.054 C 
ATOM     20  C20 UNK     1       0.470  37.080 230.616  1.00  0.00     0.015 C 
ATOM     21  C21 UNK     1      -3.087  34.556 231.284  1.00  0.00     0.149 C 
ENDROOT
BRANCH   6  22
ATOM     22  O1  UNK     1       0.939  37.525 238.296  1.00  0.00    -0.302 OA
BRANCH  22  23
ATOM     23  C23 UNK     1       1.209  38.835 238.574  1.00  0.00     0.256 C 
ATOM     24  O4  UNK     1       2.007  39.247 239.404  1.00  0.00    -0.266 OA
ATOM     25  C24 UNK     1       0.374  39.721 237.699  1.00  0.00     0.126 C 
ENDBRANCH  22  23
ENDBRANCH   6  22
BRANCH   6  26
ATOM     26  C17 UNK     1       2.658  36.173 239.045  1.00  0.00     0.158 C 
ATOM     27  O2  UNK     1       3.862  36.277 239.273  1.00  0.00    -0.295 OA
ATOM     28  C22 UNK     1       1.735  35.455 239.991  1.00  0.00     0.094 C 
ENDBRANCH   6  26
TORSDOF 3
ENDMDL
MODEL 6
REMARK VINA RESULT:      -6.5      3.826      5.674
REMARK  3 active torsions:
REMARK  status: ('A' for Active; 'I' for Inactive)
REMARK    1  A    between atoms: O1_1  and  C5_9 
REMARK    2  A    between atoms: O1_1  and  C23_27 
REMARK    3  A    between atoms: C5_9  and  C17_21 
ROOT
ATOM      1  O3  UNK     1      -7.789  37.163 234.614  1.00  0.00    -0.293 OA
ATOM      2  C1  UNK     1       0.424  36.115 236.294  1.00  0.00    -0.001 C 
ATOM      3  C2  UNK     1      -0.210  37.306 235.539  1.00  0.00     0.002 C 
ATOM      4  C3  UNK     1      -1.414  36.902 234.678  1.00  0.00    -0.004 C 
ATOM      5  C4  UNK     1      -2.503  36.269 235.593  1.00  0.00     0.002 C 
ATOM      6  C5  UNK     1       1.621  36.840 236.959  1.00  0.00     0.138 C 
ATOM      7  C6  UNK     1      -3.805  35.859 234.802  1.00  0.00    -0.016 C 
ATOM      8  C7  UNK     1      -0.645  35.547 237.240  1.00  0.00     0.013 C 
ATOM      9  C8  UNK     1      -1.919  35.136 236.480  1.00  0.00     0.007 C 
ATOM     10  C9  UNK     1       0.983  37.975 234.862  1.00  0.00     0.009 C 
ATOM     11  C10 UNK     1      -1.994  38.107 233.927  1.00  0.00     0.014 C 
ATOM     12  C11 UNK     1       2.141  37.798 235.864  1.00  0.00     0.048 C 
ATOM     13  C12 UNK     1      -3.204  37.707 233.072  1.00  0.00     0.012 C 
ATOM     14  C13 UNK     1      -4.282  37.044 233.933  1.00  0.00    -0.064 C 
ATOM     15  C14 UNK     1       0.936  34.992 235.348  1.00  0.00     0.019 C 
ATOM     16  C15 UNK     1      -4.895  35.475 235.849  1.00  0.00     0.022 C 
ATOM     17  C16 UNK     1      -3.562  34.644 233.877  1.00  0.00     0.020 C 
ATOM     18  C18 UNK     1      -6.298  35.413 235.273  1.00  0.00     0.084 C 
ATOM     19  C19 UNK     1      -5.566  37.449 233.905  1.00  0.00     0.054 C 
ATOM     20  C20 UNK     1      -3.647  38.921 232.242  1.00  0.00     0.015 C 
ATOM     21  C21 UNK     1      -6.640  36.724 234.624  1.00  0.00     0.149 C 
ENDROOT
BRANCH   6  22
ATOM     22  O1  UNK     1       1.197  37.598 238.089  1.00  0.00    -0.302 OA
BRANCH  22  23
ATOM     23  C23 UNK     1       1.679  38.875 238.159  1.00  0.00     0.256 C 
ATOM     24  O4  UNK     1       2.849  39.199 238.308  1.00  0.00    -0.266 OA
ATOM     25  C24 UNK     1       0.549  39.851 238.022  1.00  0.00     0.126 C 
ENDBRANCH  22  23
ENDBRANCH   6  22
BRANCH   6  26
ATOM     26  C17 UNK     1       2.686  35.932 237.498  1.00  0.00     0.158 C 
ATOM     27  O2  UNK     1       3.747  35.756 236.901  1.00  0.00    -0.295 OA
ATOM     28  C22 UNK     1       2.393  35.247 238.804  1.00  0.00     0.094 C 
ENDBRANCH   6  26
TORSDOF 3
ENDMDL
MODEL 7
REMARK VINA RESULT:      -6.4      3.004      7.550
REMARK  3 active torsions:
REMARK  status: ('A' for Active; 'I' for Inactive)
REMARK    1  A    between atoms: O1_1  and  C5_9 
REMARK    2  A    between atoms: O1_1  and  C23_27 
REMARK    3  A    between atoms: C5_9  and  C17_21 
ROOT
ATOM      1  O3  UNK     1       3.482  38.911 241.089  1.00  0.00    -0.293 OA
ATOM      2  C1  UNK     1      -0.508  36.631 233.999  1.00  0.00    -0.001 C 
ATOM      3  C2  UNK     1      -0.739  36.040 235.410  1.00  0.00     0.002 C 
ATOM      4  C3  UNK     1       0.542  35.968 236.251  1.00  0.00    -0.004 C 
ATOM      5  C4  UNK     1       1.124  37.403 236.413  1.00  0.00     0.002 C 
ATOM      6  C5  UNK     1      -1.935  36.472 233.417  1.00  0.00     0.138 C 
ATOM      7  C6  UNK     1       2.425  37.439 237.304  1.00  0.00    -0.016 C 
ATOM      8  C7  UNK     1       0.002  38.070 234.181  1.00  0.00     0.013 C 
ATOM      9  C8  UNK     1       1.276  38.120 235.043  1.00  0.00     0.007 C 
ATOM     10  C9  UNK     1      -1.507  34.751 235.134  1.00  0.00     0.009 C 
ATOM     11  C10 UNK     1       0.272  35.351 237.629  1.00  0.00     0.014 C 
ATOM     12  C11 UNK     1      -2.399  35.088 233.922  1.00  0.00     0.048 C 
ATOM     13  C12 UNK     1       1.551  35.287 238.475  1.00  0.00     0.012 C 
ATOM     14  C13 UNK     1       2.174  36.677 238.624  1.00  0.00    -0.064 C 
ATOM     15  C14 UNK     1       0.511  35.819 233.153  1.00  0.00     0.019 C 
ATOM     16  C15 UNK     1       2.762  38.934 237.591  1.00  0.00     0.022 C 
ATOM     17  C16 UNK     1       3.634  36.792 236.590  1.00  0.00     0.020 C 
ATOM     18  C18 UNK     1       3.755  39.128 238.723  1.00  0.00     0.084 C 
ATOM     19  C19 UNK     1       2.511  37.182 239.826  1.00  0.00     0.054 C 
ATOM     20  C20 UNK     1       1.243  34.535 239.779  1.00  0.00     0.015 C 
ATOM     21  C21 UNK     1       3.244  38.462 239.969  1.00  0.00     0.149 C 
ENDROOT
BRANCH   6  22
ATOM     22  O1  UNK     1      -2.810  37.478 233.922  1.00  0.00    -0.302 OA
BRANCH  22  23
ATOM     23  C23 UNK     1      -4.134  37.143 233.965  1.00  0.00     0.256 C 
ATOM     24  O4  UNK     1      -4.881  37.023 233.003  1.00  0.00    -0.266 OA
ATOM     25  C24 UNK     1      -4.558  36.933 235.388  1.00  0.00     0.126 C 
ENDBRANCH  22  23
ENDBRANCH   6  22
BRANCH   6  26
ATOM     26  C17 UNK     1      -2.026  36.614 231.927  1.00  0.00     0.158 C 
ATOM     27  O2  UNK     1      -1.840  37.694 231.369  1.00  0.00    -0.295 OA
ATOM     28  C22 UNK     1      -2.354  35.369 231.148  1.00  0.00     0.094 C 
ENDBRANCH   6  26
TORSDOF 3
ENDMDL
MODEL 8
REMARK VINA RESULT:      -6.2      1.754      2.204
REMARK  3 active torsions:
REMARK  status: ('A' for Active; 'I' for Inactive)
REMARK    1  A    between atoms: O1_1  and  C5_9 
REMARK    2  A    between atoms: O1_1  and  C23_27 
REMARK    3  A    between atoms: C5_9  and  C17_21 
ROOT
ATOM      1  O3  UNK     1       0.646  34.822 227.882  1.00  0.00    -0.293 OA
ATOM      2  C1  UNK     1       0.892  35.526 236.298  1.00  0.00    -0.001 C 
ATOM      3  C2  UNK     1       0.675  34.222 235.495  1.00  0.00     0.002 C 
ATOM      4  C3  UNK     1      -0.126  34.435 234.204  1.00  0.00    -0.004 C 
ATOM      5  C4  UNK     1       0.634  35.446 233.296  1.00  0.00     0.002 C 
ATOM      6  C5  UNK     1       1.623  34.948 237.536  1.00  0.00     0.138 C 
ATOM      7  C6  UNK     1      -0.094  35.698 231.918  1.00  0.00    -0.016 C 
ATOM      8  C7  UNK     1       1.701  36.485 235.409  1.00  0.00     0.013 C 
ATOM      9  C8  UNK     1       1.000  36.746 234.064  1.00  0.00     0.007 C 
ATOM     10  C9  UNK     1       0.138  33.247 236.538  1.00  0.00     0.009 C 
ATOM     11  C10 UNK     1      -0.341  33.114 233.455  1.00  0.00     0.014 C 
ATOM     12  C11 UNK     1       0.875  33.630 237.837  1.00  0.00     0.048 C 
ATOM     13  C12 UNK     1      -1.135  33.326 232.159  1.00  0.00     0.012 C 
ATOM     14  C13 UNK     1      -0.437  34.346 231.255  1.00  0.00    -0.064 C 
ATOM     15  C14 UNK     1      -0.436  36.209 236.730  1.00  0.00     0.019 C 
ATOM     16  C15 UNK     1       0.875  36.521 231.015  1.00  0.00     0.022 C 
ATOM     17  C16 UNK     1      -1.403  36.501 232.093  1.00  0.00     0.020 C 
ATOM     18  C18 UNK     1       0.480  36.529 229.549  1.00  0.00     0.084 C 
ATOM     19  C19 UNK     1      -0.173  34.089 229.960  1.00  0.00     0.054 C 
ATOM     20  C20 UNK     1      -1.435  31.956 231.533  1.00  0.00     0.015 C 
ATOM     21  C21 UNK     1       0.370  35.119 229.043  1.00  0.00     0.149 C 
ENDROOT
BRANCH   6  22
ATOM     22  O1  UNK     1       2.987  34.659 237.237  1.00  0.00    -0.302 OA
BRANCH  22  23
ATOM     23  C23 UNK     1       3.523  33.587 237.893  1.00  0.00     0.256 C 
ATOM     24  O4  UNK     1       3.873  33.558 239.064  1.00  0.00    -0.266 OA
ATOM     25  C24 UNK     1       3.622  32.419 236.958  1.00  0.00     0.126 C 
ENDBRANCH  22  23
ENDBRANCH   6  22
BRANCH   6  26
ATOM     26  C17 UNK     1       1.687  35.869 238.716  1.00  0.00     0.158 C 
ATOM     27  O2  UNK     1       1.051  35.645 239.745  1.00  0.00    -0.295 OA
ATOM     28  C22 UNK     1       2.567  37.082 238.581  1.00  0.00     0.094 C 
ENDBRANCH   6  26
TORSDOF 3
ENDMDL
MODEL 9
REMARK VINA RESULT:      -6.0      2.417      4.167
REMARK  3 active torsions:
REMARK  status: ('A' for Active; 'I' for Inactive)
REMARK    1  A    between atoms: O1_1  and  C5_9 
REMARK    2  A    between atoms: O1_1  and  C23_27 
REMARK    3  A    between atoms: C5_9  and  C17_21 
ROOT
ATOM      1  O3  UNK     1      -5.522  36.570 229.387  1.00  0.00    -0.293 OA
ATOM      2  C1  UNK     1       0.293  36.291 235.509  1.00  0.00    -0.001 C 
ATOM      3  C2  UNK     1       0.310  37.221 234.273  1.00  0.00     0.002 C 
ATOM      4  C3  UNK     1      -0.274  36.562 233.016  1.00  0.00    -0.004 C 
ATOM      5  C4  UNK     1      -1.750  36.152 233.297  1.00  0.00     0.002 C 
ATOM      6  C5  UNK     1       1.015  37.207 236.529  1.00  0.00     0.138 C 
ATOM      7  C6  UNK     1      -2.454  35.504 232.043  1.00  0.00    -0.016 C 
ATOM      8  C7  UNK     1      -1.175  35.953 235.810  1.00  0.00     0.013 C 
ATOM      9  C8  UNK     1      -1.874  35.312 234.597  1.00  0.00     0.007 C 
ATOM     10  C9  UNK     1       1.748  37.731 234.231  1.00  0.00     0.009 C 
ATOM     11  C10 UNK     1      -0.212  37.508 231.810  1.00  0.00     0.014 C 
ATOM     12  C11 UNK     1       2.150  37.864 235.714  1.00  0.00     0.048 C 
ATOM     13  C12 UNK     1      -0.805  36.856 230.554  1.00  0.00     0.012 C 
ATOM     14  C13 UNK     1      -2.245  36.403 230.805  1.00  0.00    -0.064 C 
ATOM     15  C14 UNK     1       1.100  34.979 235.301  1.00  0.00     0.019 C 
ATOM     16  C15 UNK     1      -3.973  35.368 232.371  1.00  0.00     0.022 C 
ATOM     17  C16 UNK     1      -1.893  34.099 231.726  1.00  0.00     0.020 C 
ATOM     18  C18 UNK     1      -4.838  35.108 231.151  1.00  0.00     0.084 C 
ATOM     19  C19 UNK     1      -3.253  36.740 229.978  1.00  0.00     0.054 C 
ATOM     20  C20 UNK     1      -0.584  37.795 229.358  1.00  0.00     0.015 C 
ATOM     21  C21 UNK     1      -4.621  36.191 230.132  1.00  0.00     0.149 C 
ENDROOT
BRANCH   6  22
ATOM     22  O1  UNK     1       0.138  38.219 237.019  1.00  0.00    -0.302 OA
BRANCH  22  23
ATOM     23  C23 UNK     1       0.743  39.358 237.471  1.00  0.00     0.256 C 
ATOM     24  O4  UNK     1       1.633  39.977 236.903  1.00  0.00    -0.266 OA
ATOM     25  C24 UNK     1       0.151  39.758 238.788  1.00  0.00     0.126 C 
ENDBRANCH  22  23
ENDBRANCH   6  22
BRANCH   6  26
ATOM     26  C17 UNK     1       1.506  36.510 237.763  1.00  0.00     0.158 C 
ATOM     27  O2  UNK     1       0.727  36.040 238.591  1.00  0.00    -0.295 OA
ATOM     28  C22 UNK     1       2.997  36.414 237.937  1.00  0.00     0.094 C 
ENDBRANCH   6  26
TORSDOF 3
ENDMDL
