MODEL 1
REMARK VINA RESULT:      -6.7      0.000      0.000
REMARK  6 active torsions:
REMARK  status: ('A' for Active; 'I' for Inactive)
REMARK       I    between atoms: N1_5  and  C6_17 
REMARK    1  A    between atoms: N2_6  and  C5_16 
REMARK       I    between atoms: N2_6  and  C11_22 
REMARK       I    between atoms: N4_8  and  C8_19 
REMARK    2  A    between atoms: C1_12  and  C8_19 
REMARK    3  A    between atoms: C5_16  and  C6_17 
REMARK    4  A    between atoms: C5_16  and  C9_20 
REMARK    5  A    between atoms: C7_18  and  C11_22 
REMARK    6  A    between atoms: C9_20  and  C14_25 
ROOT
ATOM      1  C5  UNK     1       0.825  38.290 236.419  1.00  0.00     0.182 C 
ENDROOT
BRANCH   1   2
ATOM      2  N2  UNK     1      -0.381  38.442 235.655  1.00  0.00    -0.346 N 
ATOM      3  C11 UNK     1      -0.635  37.749 234.478  1.00  0.00     0.241 C 
ATOM      4  O3  UNK     1       0.119  36.936 233.950  1.00  0.00    -0.271 OA
ATOM      5  H14 UNK     1      -1.096  39.066 236.018  1.00  0.00     0.163 HD
BRANCH   3   6
ATOM      6  C7  UNK     1      -1.974  38.074 233.898  1.00  0.00     0.177 C 
ATOM      7  N3  UNK     1      -1.841  39.341 233.237  1.00  0.00    -0.348 N 
ATOM      8  C13 UNK     1      -1.723  39.223 231.856  1.00  0.00     0.218 C 
ATOM      9  H17 UNK     1      -1.797  40.231 233.724  1.00  0.00     0.163 HD
ATOM     10  O4  UNK     1      -1.557  40.124 231.049  1.00  0.00    -0.274 OA
ATOM     11  C12 UNK     1      -1.788  37.753 231.522  1.00  0.00     0.105 C 
ATOM     12  C10 UNK     1      -2.379  37.126 232.785  1.00  0.00     0.044 C 
ENDBRANCH   3   6
ENDBRANCH   1   2
BRANCH   1  13
ATOM     13  C6  UNK     1       0.516  37.134 237.337  1.00  0.00     0.243 C 
ATOM     14  O1  UNK     1      -0.474  37.168 238.069  1.00  0.00    -0.271 OA
ATOM     15  N1  UNK     1       1.416  36.080 237.292  1.00  0.00    -0.337 N 
ATOM     16  C1  UNK     1       1.182  34.822 237.990  1.00  0.00     0.179 C 
ATOM     17  C3  UNK     1       2.599  35.999 236.440  1.00  0.00     0.127 C 
ATOM     18  C2  UNK     1       2.124  33.828 237.320  1.00  0.00     0.037 C 
ATOM     19  C4  UNK     1       3.283  34.702 236.845  1.00  0.00     0.022 C 
BRANCH  16  20
ATOM     20  C8  UNK     1       1.537  35.043 239.429  1.00  0.00     0.238 C 
ATOM     21  O2  UNK     1       2.701  35.169 239.802  1.00  0.00    -0.271 OA
ATOM     22  N4  UNK     1       0.451  35.068 240.270  1.00  0.00    -0.368 N 
ATOM     23  H18 UNK     1       0.568  35.203 241.269  1.00  0.00     0.159 HD
ATOM     24  H19 UNK     1      -0.502  34.972 239.933  1.00  0.00     0.159 HD
ENDBRANCH  16  20
ENDBRANCH   1  13
BRANCH   1  25
ATOM     25  C9  UNK     1       1.185  39.527 237.232  1.00  0.00     0.093 C 
BRANCH  25  26
ATOM     26  C14 UNK     1       2.233  39.227 238.277  1.00  0.00     0.028 A 
ATOM     27  N5  UNK     1       1.920  38.822 239.544  1.00  0.00    -0.354 N 
ATOM     28  C16 UNK     1       3.094  38.639 240.219  1.00  0.00     0.180 A 
ATOM     29  H20 UNK     1       0.990  38.682 239.917  1.00  0.00     0.166 HD
ATOM     30  N6  UNK     1       4.137  38.901 239.462  1.00  0.00    -0.360 N 
ATOM     31  C15 UNK     1       3.608  39.268 238.250  1.00  0.00     0.114 A 
ATOM     32  H6  UNK     1       5.123  38.844 239.720  1.00  0.00     0.166 HD
ENDBRANCH  25  26
ENDBRANCH   1  25
TORSDOF 6
ENDMDL
MODEL 2
REMARK VINA RESULT:      -6.3      5.363      7.930
REMARK  6 active torsions:
REMARK  status: ('A' for Active; 'I' for Inactive)
REMARK       I    between atoms: N1_5  and  C6_17 
REMARK    1  A    between atoms: N2_6  and  C5_16 
REMARK       I    between atoms: N2_6  and  C11_22 
REMARK       I    between atoms: N4_8  and  C8_19 
REMARK    2  A    between atoms: C1_12  and  C8_19 
REMARK    3  A    between atoms: C5_16  and  C6_17 
REMARK    4  A    between atoms: C5_16  and  C9_20 
REMARK    5  A    between atoms: C7_18  and  C11_22 
REMARK    6  A    between atoms: C9_20  and  C14_25 
ROOT
ATOM      1  C5  UNK     1      -1.419  39.744 230.397  1.00  0.00     0.182 C 
ENDROOT
BRANCH   1   2
ATOM      2  N2  UNK     1      -0.709  40.502 229.406  1.00  0.00    -0.346 N 
ATOM      3  C11 UNK     1      -0.631  41.889 229.412  1.00  0.00     0.241 C 
ATOM      4  O3  UNK     1      -1.147  42.630 230.245  1.00  0.00    -0.271 OA
ATOM      5  H14 UNK     1      -0.211  39.989 228.684  1.00  0.00     0.163 HD
BRANCH   3   6
ATOM      6  C7  UNK     1       0.190  42.423 228.282  1.00  0.00     0.177 C 
ATOM      7  N3  UNK     1      -0.292  43.748 228.011  1.00  0.00    -0.348 N 
ATOM      8  C13 UNK     1       0.525  44.741 228.540  1.00  0.00     0.218 C 
ATOM      9  H17 UNK     1      -1.159  43.945 227.521  1.00  0.00     0.163 HD
ATOM     10  O4  UNK     1       0.342  45.948 228.500  1.00  0.00    -0.274 OA
ATOM     11  C12 UNK     1       1.679  44.056 229.230  1.00  0.00     0.105 C 
ATOM     12  C10 UNK     1       1.643  42.638 228.661  1.00  0.00     0.044 C 
ENDBRANCH   3   6
ENDBRANCH   1   2
BRANCH   1  13
ATOM     13  C6  UNK     1      -0.798  38.373 230.302  1.00  0.00     0.243 C 
ATOM     14  O1  UNK     1      -0.680  37.817 229.209  1.00  0.00    -0.271 OA
ATOM     15  N1  UNK     1      -0.398  37.814 231.507  1.00  0.00    -0.337 N 
ATOM     16  C1  UNK     1       0.361  36.573 231.579  1.00  0.00     0.179 C 
ATOM     17  C3  UNK     1      -0.519  38.437 232.822  1.00  0.00     0.127 C 
ATOM     18  C2  UNK     1       0.971  36.574 232.976  1.00  0.00     0.037 C 
ATOM     19  C4  UNK     1      -0.032  37.379 233.801  1.00  0.00     0.022 C 
BRANCH  16  20
ATOM     20  C8  UNK     1      -0.611  35.447 231.397  1.00  0.00     0.238 C 
ATOM     21  O2  UNK     1      -1.728  35.460 231.911  1.00  0.00    -0.271 OA
ATOM     22  N4  UNK     1      -0.127  34.415 230.631  1.00  0.00    -0.368 N 
ATOM     23  H18 UNK     1      -0.693  33.593 230.445  1.00  0.00     0.159 HD
ATOM     24  H19 UNK     1       0.797  34.435 230.210  1.00  0.00     0.159 HD
ENDBRANCH  16  20
ENDBRANCH   1  13
BRANCH   1  25
ATOM     25  C9  UNK     1      -2.918  39.663 230.136  1.00  0.00     0.093 C 
BRANCH  25  26
ATOM     26  C14 UNK     1      -3.607  38.733 231.107  1.00  0.00     0.028 A 
ATOM     27  N5  UNK     1      -3.803  39.050 232.422  1.00  0.00    -0.354 N 
ATOM     28  C16 UNK     1      -4.449  37.997 233.006  1.00  0.00     0.180 A 
ATOM     29  H20 UNK     1      -3.523  39.907 232.882  1.00  0.00     0.166 HD
ATOM     30  N6  UNK     1      -4.678  37.028 232.147  1.00  0.00    -0.360 N 
ATOM     31  C15 UNK     1      -4.155  37.481 230.961  1.00  0.00     0.114 A 
ATOM     32  H6  UNK     1      -5.142  36.137 232.323  1.00  0.00     0.166 HD
ENDBRANCH  25  26
ENDBRANCH   1  25
TORSDOF 6
ENDMDL
MODEL 3
REMARK VINA RESULT:      -6.2      2.669      7.312
REMARK  6 active torsions:
REMARK  status: ('A' for Active; 'I' for Inactive)
REMARK       I    between atoms: N1_5  and  C6_17 
REMARK    1  A    between atoms: N2_6  and  C5_16 
REMARK       I    between atoms: N2_6  and  C11_22 
REMARK       I    between atoms: N4_8  and  C8_19 
REMARK    2  A    between atoms: C1_12  and  C8_19 
REMARK    3  A    between atoms: C5_16  and  C6_17 
REMARK    4  A    between atoms: C5_16  and  C9_20 
REMARK    5  A    between atoms: C7_18  and  C11_22 
REMARK    6  A    between atoms: C9_20  and  C14_25 
ROOT
ATOM      1  C5  UNK     1      -0.844  37.537 234.022  1.00  0.00     0.182 C 
ENDROOT
BRANCH   1   2
ATOM      2  N2  UNK     1      -0.017  38.367 234.851  1.00  0.00    -0.346 N 
ATOM      3  C11 UNK     1       1.149  37.922 235.461  1.00  0.00     0.241 C 
ATOM      4  O3  UNK     1       1.615  36.789 235.373  1.00  0.00    -0.271 OA
ATOM      5  H14 UNK     1      -0.287  39.340 234.967  1.00  0.00     0.163 HD
BRANCH   3   6
ATOM      6  C7  UNK     1       1.831  38.996 236.248  1.00  0.00     0.177 C 
ATOM      7  N3  UNK     1       0.796  39.795 236.840  1.00  0.00    -0.348 N 
ATOM      8  C13 UNK     1       0.589  39.504 238.184  1.00  0.00     0.218 C 
ATOM      9  H17 UNK     1       0.242  40.473 236.327  1.00  0.00     0.163 HD
ATOM     10  O4  UNK     1      -0.248  39.995 238.926  1.00  0.00    -0.274 OA
ATOM     11  C12 UNK     1       1.565  38.419 238.567  1.00  0.00     0.105 C 
ATOM     12  C10 UNK     1       2.598  38.455 237.440  1.00  0.00     0.044 C 
ENDBRANCH   3   6
ENDBRANCH   1   2
BRANCH   1  13
ATOM     13  C6  UNK     1      -1.575  38.527 233.151  1.00  0.00     0.243 C 
ATOM     14  O1  UNK     1      -2.388  39.309 233.645  1.00  0.00    -0.271 OA
ATOM     15  N1  UNK     1      -1.271  38.472 231.799  1.00  0.00    -0.337 N 
ATOM     16  C1  UNK     1      -1.763  39.457 230.846  1.00  0.00     0.179 C 
ATOM     17  C3  UNK     1      -0.316  37.562 231.172  1.00  0.00     0.127 C 
ATOM     18  C2  UNK     1      -0.854  39.310 229.632  1.00  0.00     0.037 C 
ATOM     19  C4  UNK     1      -0.432  37.842 229.681  1.00  0.00     0.022 C 
BRANCH  16  20
ATOM     20  C8  UNK     1      -3.182  39.094 230.526  1.00  0.00     0.238 C 
ATOM     21  O2  UNK     1      -3.550  37.926 230.429  1.00  0.00    -0.271 OA
ATOM     22  N4  UNK     1      -4.003  40.179 230.338  1.00  0.00    -0.368 N 
ATOM     23  H18 UNK     1      -4.985  40.057 230.109  1.00  0.00     0.159 HD
ATOM     24  H19 UNK     1      -3.674  41.135 230.436  1.00  0.00     0.159 HD
ENDBRANCH  16  20
ENDBRANCH   1  13
BRANCH   1  25
ATOM     25  C9  UNK     1      -1.837  36.694 234.811  1.00  0.00     0.093 C 
BRANCH  25  26
ATOM     26  C14 UNK     1      -1.453  35.233 234.817  1.00  0.00     0.028 A 
ATOM     27  N5  UNK     1      -0.623  34.691 235.758  1.00  0.00    -0.354 N 
ATOM     28  C16 UNK     1      -0.489  33.362 235.470  1.00  0.00     0.180 A 
ATOM     29  H20 UNK     1      -0.186  35.181 236.527  1.00  0.00     0.166 HD
ATOM     30  N6  UNK     1      -1.182  33.021 234.405  1.00  0.00    -0.360 N 
ATOM     31  C15 UNK     1      -1.785  34.183 233.993  1.00  0.00     0.114 A 
ATOM     32  H6  UNK     1      -1.255  32.097 233.980  1.00  0.00     0.166 HD
ENDBRANCH  25  26
ENDBRANCH   1  25
TORSDOF 6
ENDMDL
MODEL 4
REMARK VINA RESULT:      -6.2      8.085     11.150
REMARK  6 active torsions:
REMARK  status: ('A' for Active; 'I' for Inactive)
REMARK       I    between atoms: N1_5  and  C6_17 
REMARK    1  A    between atoms: N2_6  and  C5_16 
REMARK       I    between atoms: N2_6  and  C11_22 
REMARK       I    between atoms: N4_8  and  C8_19 
REMARK    2  A    between atoms: C1_12  and  C8_19 
REMARK    3  A    between atoms: C5_16  and  C6_17 
REMARK    4  A    between atoms: C5_16  and  C9_20 
REMARK    5  A    between atoms: C7_18  and  C11_22 
REMARK    6  A    between atoms: C9_20  and  C14_25 
ROOT
ATOM      1  C5  UNK     1      -1.883  40.948 229.248  1.00  0.00     0.182 C 
ENDROOT
BRANCH   1   2
ATOM      2  N2  UNK     1      -1.354  42.238 229.590  1.00  0.00    -0.346 N 
ATOM      3  C11 UNK     1      -0.028  42.601 229.388  1.00  0.00     0.241 C 
ATOM      4  O3  UNK     1       0.844  41.885 228.904  1.00  0.00    -0.271 OA
ATOM      5  H14 UNK     1      -1.996  42.929 229.967  1.00  0.00     0.163 HD
BRANCH   3   6
ATOM      6  C7  UNK     1       0.252  44.009 229.808  1.00  0.00     0.177 C 
ATOM      7  N3  UNK     1       1.570  44.017 230.376  1.00  0.00    -0.348 N 
ATOM      8  C13 UNK     1       2.533  44.514 229.505  1.00  0.00     0.218 C 
ATOM      9  H17 UNK     1       1.789  43.660 231.301  1.00  0.00     0.163 HD
ATOM     10  O4  UNK     1       3.736  44.600 229.703  1.00  0.00    -0.274 OA
ATOM     11  C12 UNK     1       1.831  44.895 228.225  1.00  0.00     0.105 C 
ATOM     12  C10 UNK     1       0.359  44.963 228.633  1.00  0.00     0.044 C 
ENDBRANCH   3   6
ENDBRANCH   1   2
BRANCH   1  13
ATOM     13  C6  UNK     1      -3.289  41.252 228.799  1.00  0.00     0.243 C 
ATOM     14  O1  UNK     1      -4.247  40.974 229.521  1.00  0.00    -0.271 OA
ATOM     15  N1  UNK     1      -3.403  41.838 227.547  1.00  0.00    -0.337 N 
ATOM     16  C1  UNK     1      -4.669  42.341 227.031  1.00  0.00     0.179 C 
ATOM     17  C3  UNK     1      -2.296  42.183 226.659  1.00  0.00     0.127 C 
ATOM     18  C2  UNK     1      -4.278  43.281 225.897  1.00  0.00     0.037 C 
ATOM     19  C4  UNK     1      -2.960  42.698 225.391  1.00  0.00     0.022 C 
BRANCH  16  20
ATOM     20  C8  UNK     1      -5.444  41.160 226.532  1.00  0.00     0.238 C 
ATOM     21  O2  UNK     1      -5.134  40.563 225.503  1.00  0.00    -0.271 OA
ATOM     22  N4  UNK     1      -6.525  40.834 227.315  1.00  0.00    -0.368 N 
ATOM     23  H18 UNK     1      -7.130  40.056 227.073  1.00  0.00     0.159 HD
ATOM     24  H19 UNK     1      -6.752  41.339 228.167  1.00  0.00     0.159 HD
ENDBRANCH  16  20
ENDBRANCH   1  13
BRANCH   1  25
ATOM     25  C9  UNK     1      -1.902  39.973 230.419  1.00  0.00     0.093 C 
BRANCH  25  26
ATOM     26  C14 UNK     1      -1.643  38.554 229.972  1.00  0.00     0.028 A 
ATOM     27  N5  UNK     1      -0.387  38.072 229.729  1.00  0.00    -0.354 N 
ATOM     28  C16 UNK     1      -0.516  36.767 229.347  1.00  0.00     0.180 A 
ATOM     29  H20 UNK     1       0.480  38.586 229.816  1.00  0.00     0.166 HD
ATOM     30  N6  UNK     1      -1.774  36.384 229.331  1.00  0.00    -0.360 N 
ATOM     31  C15 UNK     1      -2.482  37.494 229.719  1.00  0.00     0.114 A 
ATOM     32  H6  UNK     1      -2.141  35.465 229.085  1.00  0.00     0.166 HD
ENDBRANCH  25  26
ENDBRANCH   1  25
TORSDOF 6
ENDMDL
MODEL 5
REMARK VINA RESULT:      -6.2      3.100      5.907
REMARK  6 active torsions:
REMARK  status: ('A' for Active; 'I' for Inactive)
REMARK       I    between atoms: N1_5  and  C6_17 
REMARK    1  A    between atoms: N2_6  and  C5_16 
REMARK       I    between atoms: N2_6  and  C11_22 
REMARK       I    between atoms: N4_8  and  C8_19 
REMARK    2  A    between atoms: C1_12  and  C8_19 
REMARK    3  A    between atoms: C5_16  and  C6_17 
REMARK    4  A    between atoms: C5_16  and  C9_20 
REMARK    5  A    between atoms: C7_18  and  C11_22 
REMARK    6  A    between atoms: C9_20  and  C14_25 
ROOT
ATOM      1  C5  UNK     1       1.985  34.377 238.111  1.00  0.00     0.182 C 
ENDROOT
BRANCH   1   2
ATOM      2  N2  UNK     1       2.556  35.611 237.653  1.00  0.00    -0.346 N 
ATOM      3  C11 UNK     1       3.286  36.468 238.469  1.00  0.00     0.241 C 
ATOM      4  O3  UNK     1       3.533  36.285 239.658  1.00  0.00    -0.271 OA
ATOM      5  H14 UNK     1       2.446  35.850 236.671  1.00  0.00     0.163 HD
BRANCH   3   6
ATOM      6  C7  UNK     1       3.788  37.670 237.735  1.00  0.00     0.177 C 
ATOM      7  N3  UNK     1       3.065  37.730 236.496  1.00  0.00    -0.348 N 
ATOM      8  C13 UNK     1       2.039  38.669 236.511  1.00  0.00     0.218 C 
ATOM      9  H17 UNK     1       3.252  37.124 235.703  1.00  0.00     0.163 HD
ATOM     10  O4  UNK     1       1.241  38.906 235.618  1.00  0.00    -0.274 OA
ATOM     11  C12 UNK     1       2.051  39.328 237.869  1.00  0.00     0.105 C 
ATOM     12  C10 UNK     1       3.430  38.973 238.426  1.00  0.00     0.044 C 
ENDBRANCH   3   6
ENDBRANCH   1   2
BRANCH   1  13
ATOM     13  C6  UNK     1       3.054  33.359 237.803  1.00  0.00     0.243 C 
ATOM     14  O1  UNK     1       3.450  33.202 236.647  1.00  0.00    -0.271 OA
ATOM     15  N1  UNK     1       3.525  32.639 238.891  1.00  0.00    -0.337 N 
ATOM     16  C1  UNK     1       4.664  31.736 238.797  1.00  0.00     0.179 C 
ATOM     17  C3  UNK     1       3.085  32.793 240.274  1.00  0.00     0.127 C 
ATOM     18  C2  UNK     1       5.117  31.535 240.239  1.00  0.00     0.037 C 
ATOM     19  C4  UNK     1       3.831  31.712 241.043  1.00  0.00     0.022 C 
BRANCH  16  20
ATOM     20  C8  UNK     1       4.169  30.460 238.187  1.00  0.00     0.238 C 
ATOM     21  O2  UNK     1       2.977  30.159 238.181  1.00  0.00    -0.271 OA
ATOM     22  N4  UNK     1       5.165  29.672 237.663  1.00  0.00    -0.368 N 
ATOM     23  H18 UNK     1       4.952  28.780 237.230  1.00  0.00     0.159 HD
ATOM     24  H19 UNK     1       6.142  29.952 237.672  1.00  0.00     0.159 HD
ENDBRANCH  16  20
ENDBRANCH   1  13
BRANCH   1  25
ATOM     25  C9  UNK     1       0.688  34.010 237.401  1.00  0.00     0.093 C 
BRANCH  25  26
ATOM     26  C14 UNK     1       0.429  34.903 236.210  1.00  0.00     0.028 A 
ATOM     27  N5  UNK     1       1.096  34.769 235.025  1.00  0.00    -0.354 N 
ATOM     28  C16 UNK     1       0.619  35.727 234.175  1.00  0.00     0.180 A 
ATOM     29  H20 UNK     1       1.812  34.087 234.813  1.00  0.00     0.166 HD
ATOM     30  N6  UNK     1      -0.311  36.463 234.742  1.00  0.00    -0.360 N 
ATOM     31  C15 UNK     1      -0.434  35.955 236.011  1.00  0.00     0.114 A 
ATOM     32  H6  UNK     1      -0.826  37.241 234.330  1.00  0.00     0.166 HD
ENDBRANCH  25  26
ENDBRANCH   1  25
TORSDOF 6
ENDMDL
MODEL 6
REMARK VINA RESULT:      -6.1      2.285      6.496
REMARK  6 active torsions:
REMARK  status: ('A' for Active; 'I' for Inactive)
REMARK       I    between atoms: N1_5  and  C6_17 
REMARK    1  A    between atoms: N2_6  and  C5_16 
REMARK       I    between atoms: N2_6  and  C11_22 
REMARK       I    between atoms: N4_8  and  C8_19 
REMARK    2  A    between atoms: C1_12  and  C8_19 
REMARK    3  A    between atoms: C5_16  and  C6_17 
REMARK    4  A    between atoms: C5_16  and  C9_20 
REMARK    5  A    between atoms: C7_18  and  C11_22 
REMARK    6  A    between atoms: C9_20  and  C14_25 
ROOT
ATOM      1  C5  UNK     1       0.272  36.397 234.879  1.00  0.00     0.182 C 
ENDROOT
BRANCH   1   2
ATOM      2  N2  UNK     1       1.491  36.201 235.612  1.00  0.00    -0.346 N 
ATOM      3  C11 UNK     1       1.918  34.960 236.070  1.00  0.00     0.241 C 
ATOM      4  O3  UNK     1       1.325  33.896 235.913  1.00  0.00    -0.271 OA
ATOM      5  H14 UNK     1       2.084  37.010 235.771  1.00  0.00     0.163 HD
BRANCH   3   6
ATOM      6  C7  UNK     1       3.232  35.032 236.781  1.00  0.00     0.177 C 
ATOM      7  N3  UNK     1       3.251  36.283 237.487  1.00  0.00    -0.348 N 
ATOM      8  C13 UNK     1       2.984  36.143 238.844  1.00  0.00     0.218 C 
ATOM      9  H17 UNK     1       3.403  37.181 237.040  1.00  0.00     0.163 HD
ATOM     10  O4  UNK     1       2.896  37.034 239.675  1.00  0.00    -0.274 OA
ATOM     11  C12 UNK     1       2.769  34.674 239.113  1.00  0.00     0.105 C 
ATOM     12  C10 UNK     1       3.364  33.995 237.880  1.00  0.00     0.044 C 
ENDBRANCH   3   6
ENDBRANCH   1   2
BRANCH   1  13
ATOM     13  C6  UNK     1       0.744  36.624 233.466  1.00  0.00     0.243 C 
ATOM     14  O1  UNK     1       1.627  37.451 233.229  1.00  0.00    -0.271 OA
ATOM     15  N1  UNK     1       0.114  35.859 232.495  1.00  0.00    -0.337 N 
ATOM     16  C1  UNK     1       0.558  35.836 231.108  1.00  0.00     0.179 C 
ATOM     17  C3  UNK     1      -0.934  34.871 232.731  1.00  0.00     0.127 C 
ATOM     18  C2  UNK     1      -0.067  34.575 230.523  1.00  0.00     0.037 C 
ATOM     19  C4  UNK     1      -1.343  34.398 231.344  1.00  0.00     0.022 C 
BRANCH  16  20
ATOM     20  C8  UNK     1       0.027  37.076 230.453  1.00  0.00     0.238 C 
ATOM     21  O2  UNK     1       0.322  37.382 229.300  1.00  0.00    -0.271 OA
ATOM     22  N4  UNK     1      -0.789  37.826 231.265  1.00  0.00    -0.368 N 
ATOM     23  H18 UNK     1      -1.202  38.692 230.933  1.00  0.00     0.159 HD
ATOM     24  H19 UNK     1      -1.026  37.543 232.211  1.00  0.00     0.159 HD
ENDBRANCH  16  20
ENDBRANCH   1  13
BRANCH   1  25
ATOM     25  C9  UNK     1      -0.538  37.593 235.363  1.00  0.00     0.093 C 
BRANCH  25  26
ATOM     26  C14 UNK     1       0.112  38.269 236.548  1.00  0.00     0.028 A 
ATOM     27  N5  UNK     1       1.024  39.278 236.415  1.00  0.00    -0.354 N 
ATOM     28  C16 UNK     1       1.404  39.655 237.672  1.00  0.00     0.180 A 
ATOM     29  H20 UNK     1       1.358  39.675 235.547  1.00  0.00     0.166 HD
ATOM     30  N6  UNK     1       0.792  38.951 238.599  1.00  0.00    -0.360 N 
ATOM     31  C15 UNK     1      -0.015  38.085 237.905  1.00  0.00     0.114 A 
ATOM     32  H6  UNK     1       0.894  39.032 239.611  1.00  0.00     0.166 HD
ENDBRANCH  25  26
ENDBRANCH   1  25
TORSDOF 6
ENDMDL
MODEL 7
REMARK VINA RESULT:      -5.9      5.455      8.932
REMARK  6 active torsions:
REMARK  status: ('A' for Active; 'I' for Inactive)
REMARK       I    between atoms: N1_5  and  C6_17 
REMARK    1  A    between atoms: N2_6  and  C5_16 
REMARK       I    between atoms: N2_6  and  C11_22 
REMARK       I    between atoms: N4_8  and  C8_19 
REMARK    2  A    between atoms: C1_12  and  C8_19 
REMARK    3  A    between atoms: C5_16  and  C6_17 
REMARK    4  A    between atoms: C5_16  and  C9_20 
REMARK    5  A    between atoms: C7_18  and  C11_22 
REMARK    6  A    between atoms: C9_20  and  C14_25 
ROOT
ATOM      1  C5  UNK     1      -2.055  40.063 230.386  1.00  0.00     0.182 C 
ENDROOT
BRANCH   1   2
ATOM      2  N2  UNK     1      -1.454  40.741 229.274  1.00  0.00    -0.346 N 
ATOM      3  C11 UNK     1      -0.953  42.036 229.344  1.00  0.00     0.241 C 
ATOM      4  O3  UNK     1      -0.960  42.752 230.342  1.00  0.00    -0.271 OA
ATOM      5  H14 UNK     1      -1.361  40.230 228.400  1.00  0.00     0.163 HD
BRANCH   3   6
ATOM      6  C7  UNK     1      -0.359  42.493 228.051  1.00  0.00     0.177 C 
ATOM      7  N3  UNK     1      -0.040  43.884 228.211  1.00  0.00    -0.348 N 
ATOM      8  C13 UNK     1       1.313  44.107 228.444  1.00  0.00     0.218 C 
ATOM      9  H17 UNK     1      -0.731  44.627 228.196  1.00  0.00     0.163 HD
ATOM     10  O4  UNK     1       1.859  45.178 228.657  1.00  0.00    -0.274 OA
ATOM     11  C12 UNK     1       1.999  42.763 228.439  1.00  0.00     0.105 C 
ATOM     12  C10 UNK     1       0.982  41.846 227.759  1.00  0.00     0.044 C 
ENDBRANCH   3   6
ENDBRANCH   1   2
BRANCH   1  13
ATOM     13  C6  UNK     1      -1.295  38.763 230.459  1.00  0.00     0.243 C 
ATOM     14  O1  UNK     1      -0.909  38.210 229.428  1.00  0.00    -0.271 OA
ATOM     15  N1  UNK     1      -1.088  38.262 231.735  1.00  0.00    -0.337 N 
ATOM     16  C1  UNK     1      -0.238  37.108 231.994  1.00  0.00     0.179 C 
ATOM     17  C3  UNK     1      -1.528  38.884 232.981  1.00  0.00     0.127 C 
ATOM     18  C2  UNK     1       0.080  37.188 233.482  1.00  0.00     0.037 C 
ATOM     19  C4  UNK     1      -1.142  37.893 234.069  1.00  0.00     0.022 C 
BRANCH  16  20
ATOM     20  C8  UNK     1      -1.039  35.885 231.661  1.00  0.00     0.238 C 
ATOM     21  O2  UNK     1      -2.267  35.903 231.608  1.00  0.00    -0.271 OA
ATOM     22  N4  UNK     1      -0.275  34.764 231.444  1.00  0.00    -0.368 N 
ATOM     23  H18 UNK     1      -0.707  33.874 231.218  1.00  0.00     0.159 HD
ATOM     24  H19 UNK     1       0.740  34.780 231.483  1.00  0.00     0.159 HD
ENDBRANCH  16  20
ENDBRANCH   1  13
BRANCH   1  25
ATOM     25  C9  UNK     1      -3.543  39.794 230.198  1.00  0.00     0.093 C 
BRANCH  25  26
ATOM     26  C14 UNK     1      -3.955  39.908 228.749  1.00  0.00     0.028 A 
ATOM     27  N5  UNK     1      -4.320  41.093 228.175  1.00  0.00    -0.354 N 
ATOM     28  C16 UNK     1      -4.627  40.838 226.868  1.00  0.00     0.180 A 
ATOM     29  H20 UNK     1      -4.357  41.995 228.631  1.00  0.00     0.166 HD
ATOM     30  N6  UNK     1      -4.480  39.566 226.571  1.00  0.00    -0.360 N 
ATOM     31  C15 UNK     1      -4.061  38.980 227.740  1.00  0.00     0.114 A 
ATOM     32  H6  UNK     1      -4.642  39.114 225.671  1.00  0.00     0.166 HD
ENDBRANCH  25  26
ENDBRANCH   1  25
TORSDOF 6
ENDMDL
MODEL 8
REMARK VINA RESULT:      -5.9      2.161      6.457
REMARK  6 active torsions:
REMARK  status: ('A' for Active; 'I' for Inactive)
REMARK       I    between atoms: N1_5  and  C6_17 
REMARK    1  A    between atoms: N2_6  and  C5_16 
REMARK       I    between atoms: N2_6  and  C11_22 
REMARK       I    between atoms: N4_8  and  C8_19 
REMARK    2  A    between atoms: C1_12  and  C8_19 
REMARK    3  A    between atoms: C5_16  and  C6_17 
REMARK    4  A    between atoms: C5_16  and  C9_20 
REMARK    5  A    between atoms: C7_18  and  C11_22 
REMARK    6  A    between atoms: C9_20  and  C14_25 
ROOT
ATOM      1  C5  UNK     1       0.910  35.953 234.907  1.00  0.00     0.182 C 
ENDROOT
BRANCH   1   2
ATOM      2  N2  UNK     1       0.843  36.696 236.133  1.00  0.00    -0.346 N 
ATOM      3  C11 UNK     1       1.305  38.000 236.265  1.00  0.00     0.241 C 
ATOM      4  O3  UNK     1       1.818  38.671 235.373  1.00  0.00    -0.271 OA
ATOM      5  H14 UNK     1       0.403  36.252 236.933  1.00  0.00     0.163 HD
BRANCH   3   6
ATOM      6  C7  UNK     1       1.092  38.548 237.640  1.00  0.00     0.177 C 
ATOM      7  N3  UNK     1       1.010  37.421 238.526  1.00  0.00    -0.348 N 
ATOM      8  C13 UNK     1       2.186  37.202 239.234  1.00  0.00     0.218 C 
ATOM      9  H17 UNK     1       0.195  36.819 238.601  1.00  0.00     0.163 HD
ATOM     10  O4  UNK     1       2.416  36.297 240.023  1.00  0.00    -0.274 OA
ATOM     11  C12 UNK     1       3.169  38.268 238.818  1.00  0.00     0.105 C 
ATOM     12  C10 UNK     1       2.288  39.326 238.155  1.00  0.00     0.044 C 
ENDBRANCH   3   6
ENDBRANCH   1   2
BRANCH   1  13
ATOM     13  C6  UNK     1      -0.386  36.295 234.217  1.00  0.00     0.243 C 
ATOM     14  O1  UNK     1      -1.446  36.285 234.844  1.00  0.00    -0.271 OA
ATOM     15  N1  UNK     1      -0.282  36.598 232.868  1.00  0.00    -0.337 N 
ATOM     16  C1  UNK     1      -1.406  37.105 232.091  1.00  0.00     0.179 C 
ATOM     17  C3  UNK     1       0.952  36.622 232.088  1.00  0.00     0.127 C 
ATOM     18  C2  UNK     1      -0.772  37.726 230.853  1.00  0.00     0.037 C 
ATOM     19  C4  UNK     1       0.506  36.911 230.662  1.00  0.00     0.022 C 
BRANCH  16  20
ATOM     20  C8  UNK     1      -2.270  35.930 231.745  1.00  0.00     0.238 C 
ATOM     21  O2  UNK     1      -1.941  35.106 230.894  1.00  0.00    -0.271 OA
ATOM     22  N4  UNK     1      -3.449  35.882 232.448  1.00  0.00    -0.368 N 
ATOM     23  H18 UNK     1      -4.119  35.135 232.293  1.00  0.00     0.159 HD
ATOM     24  H19 UNK     1      -3.691  36.570 233.154  1.00  0.00     0.159 HD
ENDBRANCH  16  20
ENDBRANCH   1  13
BRANCH   1  25
ATOM     25  C9  UNK     1       1.015  34.448 235.118  1.00  0.00     0.093 C 
BRANCH  25  26
ATOM     26  C14 UNK     1       1.695  34.109 236.423  1.00  0.00     0.028 A 
ATOM     27  N5  UNK     1       3.050  34.170 236.588  1.00  0.00    -0.354 N 
ATOM     28  C16 UNK     1       3.324  33.805 237.876  1.00  0.00     0.180 A 
ATOM     29  H20 UNK     1       3.730  34.436 235.887  1.00  0.00     0.166 HD
ATOM     30  N6  UNK     1       2.229  33.516 238.544  1.00  0.00    -0.360 N 
ATOM     31  C15 UNK     1       1.210  33.703 237.644  1.00  0.00     0.114 A 
ATOM     32  H6  UNK     1       2.154  33.218 239.517  1.00  0.00     0.166 HD
ENDBRANCH  25  26
ENDBRANCH   1  25
TORSDOF 6
ENDMDL
MODEL 9
REMARK VINA RESULT:      -5.8      7.751     11.906
REMARK  6 active torsions:
REMARK  status: ('A' for Active; 'I' for Inactive)
REMARK       I    between atoms: N1_5  and  C6_17 
REMARK    1  A    between atoms: N2_6  and  C5_16 
REMARK       I    between atoms: N2_6  and  C11_22 
REMARK       I    between atoms: N4_8  and  C8_19 
REMARK    2  A    between atoms: C1_12  and  C8_19 
REMARK    3  A    between atoms: C5_16  and  C6_17 
REMARK    4  A    between atoms: C5_16  and  C9_20 
REMARK    5  A    between atoms: C7_18  and  C11_22 
REMARK    6  A    between atoms: C9_20  and  C14_25 
ROOT
ATOM      1  C5  UNK     1      -2.363  41.949 227.778  1.00  0.00     0.182 C 
ENDROOT
BRANCH   1   2
ATOM      2  N2  UNK     1      -1.419  43.017 227.945  1.00  0.00    -0.346 N 
ATOM      3  C11 UNK     1      -0.056  42.879 227.712  1.00  0.00     0.241 C 
ATOM      4  O3  UNK     1       0.506  41.851 227.342  1.00  0.00    -0.271 OA
ATOM      5  H14 UNK     1      -1.777  43.928 228.216  1.00  0.00     0.163 HD
BRANCH   3   6
ATOM      6  C7  UNK     1       0.697  44.151 227.937  1.00  0.00     0.177 C 
ATOM      7  N3  UNK     1       0.395  44.579 229.274  1.00  0.00    -0.348 N 
ATOM      8  C13 UNK     1       1.413  44.292 230.178  1.00  0.00     0.218 C 
ATOM      9  H17 UNK     1      -0.483  45.009 229.545  1.00  0.00     0.163 HD
ATOM     10  O4  UNK     1       1.414  44.503 231.381  1.00  0.00    -0.274 OA
ATOM     11  C12 UNK     1       2.522  43.616 229.409  1.00  0.00     0.105 C 
ATOM     12  C10 UNK     1       2.201  43.951 227.952  1.00  0.00     0.044 C 
ENDBRANCH   3   6
ENDBRANCH   1   2
BRANCH   1  13
ATOM     13  C6  UNK     1      -3.296  42.468 226.714  1.00  0.00     0.243 C 
ATOM     14  O1  UNK     1      -3.298  43.663 226.417  1.00  0.00    -0.271 OA
ATOM     15  N1  UNK     1      -4.126  41.520 226.133  1.00  0.00    -0.337 N 
ATOM     16  C1  UNK     1      -4.969  41.819 224.983  1.00  0.00     0.179 C 
ATOM     17  C3  UNK     1      -4.156  40.097 226.455  1.00  0.00     0.127 C 
ATOM     18  C2  UNK     1      -5.326  40.456 224.402  1.00  0.00     0.037 C 
ATOM     19  C4  UNK     1      -5.294  39.532 225.617  1.00  0.00     0.022 C 
BRANCH  16  20
ATOM     20  C8  UNK     1      -6.179  42.540 225.497  1.00  0.00     0.238 C 
ATOM     21  O2  UNK     1      -7.122  41.945 226.013  1.00  0.00    -0.271 OA
ATOM     22  N4  UNK     1      -6.131  43.901 225.317  1.00  0.00    -0.368 N 
ATOM     23  H18 UNK     1      -6.897  44.494 225.619  1.00  0.00     0.159 HD
ATOM     24  H19 UNK     1      -5.333  44.368 224.897  1.00  0.00     0.159 HD
ENDBRANCH  16  20
ENDBRANCH   1  13
BRANCH   1  25
ATOM     25  C9  UNK     1      -3.139  41.624 229.048  1.00  0.00     0.093 C 
BRANCH  25  26
ATOM     26  C14 UNK     1      -2.517  40.477 229.809  1.00  0.00     0.028 A 
ATOM     27  N5  UNK     1      -3.179  39.794 230.789  1.00  0.00    -0.354 N 
ATOM     28  C16 UNK     1      -2.333  38.830 231.261  1.00  0.00     0.180 A 
ATOM     29  H20 UNK     1      -4.123  39.967 231.109  1.00  0.00     0.166 HD
ATOM     30  N6  UNK     1      -1.172  38.855 230.643  1.00  0.00    -0.360 N 
ATOM     31  C15 UNK     1      -1.280  39.880 229.736  1.00  0.00     0.114 A 
ATOM     32  H6  UNK     1      -0.369  38.246 230.803  1.00  0.00     0.166 HD
ENDBRANCH  25  26
ENDBRANCH   1  25
TORSDOF 6
ENDMDL
