MODEL 1
REMARK VINA RESULT:      -6.5      0.000      0.000
REMARK  3 active torsions:
REMARK  status: ('A' for Active; 'I' for Inactive)
REMARK    1  A    between atoms: N1_2  and  C4_5 
REMARK    2  A    between atoms: C2_3  and  O1_10 
REMARK    3  A    between atoms: C3_4  and  O1_10 
ROOT
ATOM      1  C1  UNK     1       2.077  43.619 229.786  1.00  0.00     0.037 A 
ATOM      2  C3  UNK     1       0.260  43.010 228.370  1.00  0.00     0.079 A 
ATOM      3  C4  UNK     1       4.420  43.604 230.500  1.00  0.00     0.122 A 
ATOM      4  C5  UNK     1       1.138  42.351 227.515  1.00  0.00     0.039 A 
ATOM      5  C6  UNK     1       2.493  42.322 227.797  1.00  0.00     0.034 A 
ATOM      6  C7  UNK     1       2.975  42.943 228.949  1.00  0.00     0.051 A 
ATOM      7  C8  UNK     1       0.714  43.667 229.508  1.00  0.00     0.058 A 
ATOM      8  S1  UNK     1       2.932  44.292 231.144  1.00  0.00    -0.058 SA
ATOM      9  N2  UNK     1       4.300  42.946 229.376  1.00  0.00    -0.340 N 
ATOM     10  H2  UNK     1       5.071  42.497 228.881  1.00  0.00     0.167 HD
ENDROOT
BRANCH   2  11
ATOM     11  O1  UNK     1      -1.115  42.948 228.101  1.00  0.00    -0.255 OA
BRANCH  11  12
ATOM     12  C2  UNK     1      -1.853  42.056 228.763  1.00  0.00     0.530 C 
ATOM     13  F1  UNK     1      -2.906  41.722 228.050  1.00  0.00    -0.144 F 
ATOM     14  F2  UNK     1      -1.224  40.942 229.095  1.00  0.00    -0.144 F 
ATOM     15  F3  UNK     1      -2.295  42.597 229.879  1.00  0.00    -0.144 F 
ENDBRANCH  11  12
ENDBRANCH   2  11
BRANCH   3  16
ATOM     16  N1  UNK     1       5.571  43.752 231.162  1.00  0.00    -0.282 NA
ATOM     17  H1  UNK     1       5.953  44.656 230.971  1.00  0.00     0.126 HD
ATOM     18  H2  UNK     1       5.405  43.662 232.144  1.00  0.00     0.126 HD
ENDBRANCH   3  16
TORSDOF 3
ENDMDL
MODEL 2
REMARK VINA RESULT:      -6.3      4.500      5.651
REMARK  3 active torsions:
REMARK  status: ('A' for Active; 'I' for Inactive)
REMARK    1  A    between atoms: N1_2  and  C4_5 
REMARK    2  A    between atoms: C2_3  and  O1_10 
REMARK    3  A    between atoms: C3_4  and  O1_10 
ROOT
ATOM      1  C1  UNK     1      -0.044  43.059 228.749  1.00  0.00     0.037 A 
ATOM      2  C3  UNK     1       1.924  43.945 229.759  1.00  0.00     0.079 A 
ATOM      3  C4  UNK     1      -1.797  42.962 227.042  1.00  0.00     0.122 A 
ATOM      4  C5  UNK     1       2.090  44.816 228.686  1.00  0.00     0.039 A 
ATOM      5  C6  UNK     1       1.183  44.811 227.640  1.00  0.00     0.034 A 
ATOM      6  C7  UNK     1       0.094  43.942 227.670  1.00  0.00     0.051 A 
ATOM      7  C8  UNK     1       0.867  43.043 229.802  1.00  0.00     0.058 A 
ATOM      8  S1  UNK     1      -1.480  42.098 228.544  1.00  0.00    -0.058 SA
ATOM      9  N2  UNK     1      -0.915  43.870 226.713  1.00  0.00    -0.340 N 
ATOM     10  H2  UNK     1      -0.960  44.447 225.873  1.00  0.00     0.167 HD
ENDROOT
BRANCH   2  11
ATOM     11  O1  UNK     1       2.811  44.034 230.841  1.00  0.00    -0.255 OA
BRANCH  11  12
ATOM     12  C2  UNK     1       4.084  43.681 230.651  1.00  0.00     0.530 C 
ATOM     13  F1  UNK     1       4.548  43.070 231.718  1.00  0.00    -0.144 F 
ATOM     14  F2  UNK     1       4.298  42.891 229.612  1.00  0.00    -0.144 F 
ATOM     15  F3  UNK     1       4.814  44.761 230.472  1.00  0.00    -0.144 F 
ENDBRANCH  11  12
ENDBRANCH   2  11
BRANCH   3  16
ATOM     16  N1  UNK     1      -2.891  42.688 226.326  1.00  0.00    -0.282 NA
ATOM     17  H1  UNK     1      -3.011  41.697 226.265  1.00  0.00     0.126 HD
ATOM     18  H2  UNK     1      -3.690  43.093 226.771  1.00  0.00     0.126 HD
ENDBRANCH   3  16
TORSDOF 3
ENDMDL
MODEL 3
REMARK VINA RESULT:      -6.2      1.828      2.489
REMARK  3 active torsions:
REMARK  status: ('A' for Active; 'I' for Inactive)
REMARK    1  A    between atoms: N1_2  and  C4_5 
REMARK    2  A    between atoms: C2_3  and  O1_10 
REMARK    3  A    between atoms: C3_4  and  O1_10 
ROOT
ATOM      1  C1  UNK     1       2.102  43.044 228.984  1.00  0.00     0.037 A 
ATOM      2  C3  UNK     1      -0.188  42.719 228.413  1.00  0.00     0.079 A 
ATOM      3  C4  UNK     1       3.940  44.053 230.249  1.00  0.00     0.122 A 
ATOM      4  C5  UNK     1      -0.574  43.553 229.458  1.00  0.00     0.039 A 
ATOM      5  C6  UNK     1       0.383  44.139 230.270  1.00  0.00     0.034 A 
ATOM      6  C7  UNK     1       1.736  43.903 230.028  1.00  0.00     0.051 A 
ATOM      7  C8  UNK     1       1.151  42.438 228.168  1.00  0.00     0.058 A 
ATOM      8  S1  UNK     1       3.836  42.930 228.896  1.00  0.00    -0.058 SA
ATOM      9  N2  UNK     1       2.797  44.466 230.732  1.00  0.00    -0.340 N 
ATOM     10  H2  UNK     1       2.696  45.112 231.515  1.00  0.00     0.167 HD
ENDROOT
BRANCH   2  11
ATOM     11  O1  UNK     1      -1.177  42.210 227.559  1.00  0.00    -0.255 OA
BRANCH  11  12
ATOM     12  C2  UNK     1      -1.711  43.025 226.647  1.00  0.00     0.530 C 
ATOM     13  F1  UNK     1      -2.951  43.317 226.972  1.00  0.00    -0.144 F 
ATOM     14  F2  UNK     1      -1.065  44.164 226.466  1.00  0.00    -0.144 F 
ATOM     15  F3  UNK     1      -1.748  42.412 225.482  1.00  0.00    -0.144 F 
ENDBRANCH  11  12
ENDBRANCH   2  11
BRANCH   3  16
ATOM     16  N1  UNK     1       5.132  44.446 230.707  1.00  0.00    -0.282 NA
ATOM     17  H1  UNK     1       5.736  44.646 229.937  1.00  0.00     0.126 HD
ATOM     18  H2  UNK     1       5.020  45.269 231.265  1.00  0.00     0.126 HD
ENDBRANCH   3  16
TORSDOF 3
ENDMDL
MODEL 4
REMARK VINA RESULT:      -5.8      4.397      5.603
REMARK  3 active torsions:
REMARK  status: ('A' for Active; 'I' for Inactive)
REMARK    1  A    between atoms: N1_2  and  C4_5 
REMARK    2  A    between atoms: C2_3  and  O1_10 
REMARK    3  A    between atoms: C3_4  and  O1_10 
ROOT
ATOM      1  C1  UNK     1      -0.734  41.698 229.076  1.00  0.00     0.037 A 
ATOM      2  C3  UNK     1       1.135  42.977 228.337  1.00  0.00     0.079 A 
ATOM      3  C4  UNK     1      -3.108  41.102 229.155  1.00  0.00     0.122 A 
ATOM      4  C5  UNK     1       0.318  43.670 227.448  1.00  0.00     0.039 A 
ATOM      5  C6  UNK     1      -1.033  43.378 227.374  1.00  0.00     0.034 A 
ATOM      6  C7  UNK     1      -1.578  42.399 228.203  1.00  0.00     0.051 A 
ATOM      7  C8  UNK     1       0.628  41.971 229.152  1.00  0.00     0.058 A 
ATOM      8  S1  UNK     1      -1.663  40.547 229.993  1.00  0.00    -0.058 SA
ATOM      9  N2  UNK     1      -2.923  42.044 228.267  1.00  0.00    -0.340 N 
ATOM     10  H2  UNK     1      -3.661  42.462 227.701  1.00  0.00     0.167 HD
ENDROOT
BRANCH   2  11
ATOM     11  O1  UNK     1       2.481  43.354 228.447  1.00  0.00    -0.255 OA
BRANCH  11  12
ATOM     12  C2  UNK     1       2.830  44.187 229.429  1.00  0.00     0.530 C 
ATOM     13  F1  UNK     1       2.430  45.408 229.150  1.00  0.00    -0.144 F 
ATOM     14  F2  UNK     1       2.358  43.874 230.624  1.00  0.00    -0.144 F 
ATOM     15  F3  UNK     1       4.142  44.220 229.528  1.00  0.00    -0.144 F 
ENDBRANCH  11  12
ENDBRANCH   2  11
BRANCH   3  16
ATOM     16  N1  UNK     1      -4.302  40.579 229.453  1.00  0.00    -0.282 NA
ATOM     17  H1  UNK     1      -4.181  39.651 229.807  1.00  0.00     0.126 HD
ATOM     18  H2  UNK     1      -4.749  41.144 230.146  1.00  0.00     0.126 HD
ENDBRANCH   3  16
TORSDOF 3
ENDMDL
MODEL 5
REMARK VINA RESULT:      -5.7      4.607      5.962
REMARK  3 active torsions:
REMARK  status: ('A' for Active; 'I' for Inactive)
REMARK    1  A    between atoms: N1_2  and  C4_5 
REMARK    2  A    between atoms: C2_3  and  O1_10 
REMARK    3  A    between atoms: C3_4  and  O1_10 
ROOT
ATOM      1  C1  UNK     1      -0.996  42.861 227.315  1.00  0.00     0.037 A 
ATOM      2  C3  UNK     1       0.934  42.884 228.711  1.00  0.00     0.079 A 
ATOM      3  C4  UNK     1      -3.336  42.364 226.791  1.00  0.00     0.122 A 
ATOM      4  C5  UNK     1       0.185  42.373 229.767  1.00  0.00     0.039 A 
ATOM      5  C6  UNK     1      -1.162  42.101 229.595  1.00  0.00     0.034 A 
ATOM      6  C7  UNK     1      -1.764  42.327 228.358  1.00  0.00     0.051 A 
ATOM      7  C8  UNK     1       0.356  43.152 227.476  1.00  0.00     0.058 A 
ATOM      8  S1  UNK     1      -1.980  43.035 225.890  1.00  0.00    -0.058 SA
ATOM      9  N2  UNK     1      -3.089  42.050 228.037  1.00  0.00    -0.340 N 
ATOM     10  H2  UNK     1      -3.773  41.656 228.683  1.00  0.00     0.167 HD
ENDROOT
BRANCH   2  11
ATOM     11  O1  UNK     1       2.312  43.069 228.893  1.00  0.00    -0.255 OA
BRANCH  11  12
ATOM     12  C2  UNK     1       2.729  44.172 229.517  1.00  0.00     0.530 C 
ATOM     13  F1  UNK     1       4.040  44.256 229.459  1.00  0.00    -0.144 F 
ATOM     14  F2  UNK     1       2.234  45.304 229.047  1.00  0.00    -0.144 F 
ATOM     15  F3  UNK     1       2.399  44.105 230.790  1.00  0.00    -0.144 F 
ENDBRANCH  11  12
ENDBRANCH   2  11
BRANCH   3  16
ATOM     16  N1  UNK     1      -4.518  42.184 226.194  1.00  0.00    -0.282 NA
ATOM     17  H1  UNK     1      -4.509  41.322 225.687  1.00  0.00     0.126 HD
ATOM     18  H2  UNK     1      -5.240  42.157 226.885  1.00  0.00     0.126 HD
ENDBRANCH   3  16
TORSDOF 3
ENDMDL
MODEL 6
REMARK VINA RESULT:      -5.7      4.647      6.170
REMARK  3 active torsions:
REMARK  status: ('A' for Active; 'I' for Inactive)
REMARK    1  A    between atoms: N1_2  and  C4_5 
REMARK    2  A    between atoms: C2_3  and  O1_10 
REMARK    3  A    between atoms: C3_4  and  O1_10 
ROOT
ATOM      1  C1  UNK     1      -2.256  42.332 227.700  1.00  0.00     0.037 A 
ATOM      2  C3  UNK     1      -0.059  42.985 228.350  1.00  0.00     0.079 A 
ATOM      3  C4  UNK     1      -4.404  41.197 228.010  1.00  0.00     0.122 A 
ATOM      4  C5  UNK     1      -0.246  42.398 229.598  1.00  0.00     0.039 A 
ATOM      5  C6  UNK     1      -1.444  41.771 229.898  1.00  0.00     0.034 A 
ATOM      6  C7  UNK     1      -2.457  41.716 228.942  1.00  0.00     0.051 A 
ATOM      7  C8  UNK     1      -1.063  42.977 227.388  1.00  0.00     0.058 A 
ATOM      8  S1  UNK     1      -3.662  42.111 226.699  1.00  0.00    -0.058 SA
ATOM      9  N2  UNK     1      -3.684  41.076 229.095  1.00  0.00    -0.340 N 
ATOM     10  H2  UNK     1      -3.980  40.580 229.936  1.00  0.00     0.167 HD
ENDROOT
BRANCH   2  11
ATOM     11  O1  UNK     1       1.194  43.537 228.048  1.00  0.00    -0.255 OA
BRANCH  11  12
ATOM     12  C2  UNK     1       2.223  42.710 227.851  1.00  0.00     0.530 C 
ATOM     13  F1  UNK     1       3.099  42.841 228.823  1.00  0.00    -0.144 F 
ATOM     14  F2  UNK     1       1.905  41.430 227.767  1.00  0.00    -0.144 F 
ATOM     15  F3  UNK     1       2.833  43.032 226.730  1.00  0.00    -0.144 F 
ENDBRANCH  11  12
ENDBRANCH   2  11
BRANCH   3  16
ATOM     16  N1  UNK     1      -5.619  40.663 227.854  1.00  0.00    -0.282 NA
ATOM     17  H1  UNK     1      -6.308  41.387 227.872  1.00  0.00     0.126 HD
ATOM     18  H2  UNK     1      -5.662  40.184 226.976  1.00  0.00     0.126 HD
ENDBRANCH   3  16
TORSDOF 3
ENDMDL
MODEL 7
REMARK VINA RESULT:      -5.4      2.999      3.979
REMARK  3 active torsions:
REMARK  status: ('A' for Active; 'I' for Inactive)
REMARK    1  A    between atoms: N1_2  and  C4_5 
REMARK    2  A    between atoms: C2_3  and  O1_10 
REMARK    3  A    between atoms: C3_4  and  O1_10 
ROOT
ATOM      1  C1  UNK     1      -0.839  42.616 228.886  1.00  0.00     0.037 A 
ATOM      2  C3  UNK     1      -2.959  41.535 229.002  1.00  0.00     0.079 A 
ATOM      3  C4  UNK     1       0.955  43.841 227.755  1.00  0.00     0.122 A 
ATOM      4  C5  UNK     1      -3.240  41.931 227.697  1.00  0.00     0.039 A 
ATOM      5  C6  UNK     1      -2.314  42.671 226.981  1.00  0.00     0.034 A 
ATOM      6  C7  UNK     1      -1.094  43.007 227.564  1.00  0.00     0.051 A 
ATOM      7  C8  UNK     1      -1.765  41.884 229.623  1.00  0.00     0.058 A 
ATOM      8  S1  UNK     1       0.746  43.153 229.363  1.00  0.00    -0.058 SA
ATOM      9  N2  UNK     1      -0.059  43.699 226.941  1.00  0.00    -0.340 N 
ATOM     10  H2  UNK     1      -0.087  44.047 225.983  1.00  0.00     0.167 HD
ENDROOT
BRANCH   2  11
ATOM     11  O1  UNK     1      -3.881  40.716 229.669  1.00  0.00    -0.255 OA
BRANCH  11  12
ATOM     12  C2  UNK     1      -3.873  39.407 229.410  1.00  0.00     0.530 C 
ATOM     13  F1  UNK     1      -4.820  39.111 228.548  1.00  0.00    -0.144 F 
ATOM     14  F2  UNK     1      -2.734  38.937 228.932  1.00  0.00    -0.144 F 
ATOM     15  F3  UNK     1      -4.131  38.742 230.517  1.00  0.00    -0.144 F 
ENDBRANCH  11  12
ENDBRANCH   2  11
BRANCH   3  16
ATOM     16  N1  UNK     1       2.102  44.442 227.425  1.00  0.00    -0.282 NA
ATOM     17  H1  UNK     1       2.715  44.449 228.214  1.00  0.00     0.126 HD
ATOM     18  H2  UNK     1       2.534  43.946 226.672  1.00  0.00     0.126 HD
ENDBRANCH   3  16
TORSDOF 3
ENDMDL
MODEL 8
REMARK VINA RESULT:      -5.3     10.221     11.084
REMARK  3 active torsions:
REMARK  status: ('A' for Active; 'I' for Inactive)
REMARK    1  A    between atoms: N1_2  and  C4_5 
REMARK    2  A    between atoms: C2_3  and  O1_10 
REMARK    3  A    between atoms: C3_4  and  O1_10 
ROOT
ATOM      1  C1  UNK     1       1.729  37.425 236.194  1.00  0.00     0.037 A 
ATOM      2  C3  UNK     1       3.076  38.154 238.019  1.00  0.00     0.079 A 
ATOM      3  C4  UNK     1      -0.125  37.616 234.604  1.00  0.00     0.122 A 
ATOM      4  C5  UNK     1       2.362  39.347 238.078  1.00  0.00     0.039 A 
ATOM      5  C6  UNK     1       1.324  39.581 237.192  1.00  0.00     0.034 A 
ATOM      6  C7  UNK     1       0.984  38.611 236.250  1.00  0.00     0.051 A 
ATOM      7  C8  UNK     1       2.783  37.182 237.069  1.00  0.00     0.058 A 
ATOM      8  S1  UNK     1       1.097  36.393 234.944  1.00  0.00    -0.058 SA
ATOM      9  N2  UNK     1      -0.065  38.696 235.339  1.00  0.00    -0.340 N 
ATOM     10  H2  UNK     1      -0.700  39.490 235.257  1.00  0.00     0.167 HD
ENDROOT
BRANCH   2  11
ATOM     11  O1  UNK     1       4.065  37.913 238.983  1.00  0.00    -0.255 OA
BRANCH  11  12
ATOM     12  C2  UNK     1       3.702  37.861 240.267  1.00  0.00     0.530 C 
ATOM     13  F1  UNK     1       4.690  37.391 240.996  1.00  0.00    -0.144 F 
ATOM     14  F2  UNK     1       3.329  39.015 240.792  1.00  0.00    -0.144 F 
ATOM     15  F3  UNK     1       2.690  37.029 240.401  1.00  0.00    -0.144 F 
ENDBRANCH  11  12
ENDBRANCH   2  11
BRANCH   3  16
ATOM     16  N1  UNK     1      -1.047  37.402 233.661  1.00  0.00    -0.282 NA
ATOM     17  H1  UNK     1      -1.904  37.116 234.090  1.00  0.00     0.126 HD
ATOM     18  H2  UNK     1      -1.198  38.245 233.145  1.00  0.00     0.126 HD
ENDBRANCH   3  16
TORSDOF 3
ENDMDL
MODEL 9
REMARK VINA RESULT:      -5.3      2.688      2.991
REMARK  3 active torsions:
REMARK  status: ('A' for Active; 'I' for Inactive)
REMARK    1  A    between atoms: N1_2  and  C4_5 
REMARK    2  A    between atoms: C2_3  and  O1_10 
REMARK    3  A    between atoms: C3_4  and  O1_10 
ROOT
ATOM      1  C1  UNK     1       0.322  43.812 229.187  1.00  0.00     0.037 A 
ATOM      2  C3  UNK     1      -0.009  41.456 229.063  1.00  0.00     0.079 A 
ATOM      3  C4  UNK     1       1.226  45.957 228.425  1.00  0.00     0.122 A 
ATOM      4  C5  UNK     1       0.669  41.418 227.848  1.00  0.00     0.039 A 
ATOM      5  C6  UNK     1       1.180  42.582 227.300  1.00  0.00     0.034 A 
ATOM      6  C7  UNK     1       1.026  43.792 227.975  1.00  0.00     0.051 A 
ATOM      7  C8  UNK     1      -0.208  42.652 229.743  1.00  0.00     0.058 A 
ATOM      8  S1  UNK     1       0.284  45.433 229.818  1.00  0.00    -0.058 SA
ATOM      9  N2  UNK     1       1.533  45.022 227.564  1.00  0.00    -0.340 N 
ATOM     10  H2  UNK     1       2.069  45.173 226.709  1.00  0.00     0.167 HD
ENDROOT
BRANCH   2  11
ATOM     11  O1  UNK     1      -0.439  40.249 229.631  1.00  0.00    -0.255 OA
BRANCH  11  12
ATOM     12  C2  UNK     1      -1.748  39.988 229.656  1.00  0.00     0.530 C 
ATOM     13  F1  UNK     1      -1.969  38.749 229.277  1.00  0.00    -0.144 F 
ATOM     14  F2  UNK     1      -2.331  40.158 230.830  1.00  0.00    -0.144 F 
ATOM     15  F3  UNK     1      -2.366  40.774 228.800  1.00  0.00    -0.144 F 
ENDBRANCH  11  12
ENDBRANCH   2  11
BRANCH   3  16
ATOM     16  N1  UNK     1       1.601  47.235 228.308  1.00  0.00    -0.282 NA
ATOM     17  H1  UNK     1       2.573  47.319 228.523  1.00  0.00     0.126 HD
ATOM     18  H2  UNK     1       1.438  47.545 227.371  1.00  0.00     0.126 HD
ENDBRANCH   3  16
TORSDOF 3
ENDMDL
