MODEL 1
REMARK VINA RESULT:      -7.0      0.000      0.000
REMARK  3 active torsions:
REMARK  status: ('A' for Active; 'I' for Inactive)
REMARK    1  A    between atoms: N1_2  and  C7_9 
REMARK    2  A    between atoms: C5_7  and  C6_8 
REMARK    3  A    between atoms: C5_7  and  C7_9 
ROOT
ATOM      1  O1  UNK     1       3.316  34.256 239.753  1.00  0.00    -0.346 OA
ATOM      2  C1  UNK     1       2.474  35.750 237.204  1.00  0.00    -0.016 C 
ATOM      3  C2  UNK     1       2.983  36.824 238.089  1.00  0.00    -0.017 A 
ATOM      4  C3  UNK     1       2.929  34.332 237.288  1.00  0.00     0.008 A 
ATOM      5  C4  UNK     1       2.953  36.621 239.478  1.00  0.00    -0.023 A 
ATOM      6  C6  UNK     1       1.468  36.084 236.373  1.00  0.00    -0.012 C 
ATOM      7  C8  UNK     1       2.415  35.327 240.021  1.00  0.00     0.215 C 
ATOM      8  C9  UNK     1       3.317  33.708 238.493  1.00  0.00     0.080 A 
ATOM      9  C10 UNK     1       3.507  38.019 237.575  1.00  0.00     0.013 A 
ATOM     10  C11 UNK     1       3.440  37.616 240.335  1.00  0.00     0.010 A 
ATOM     11  C12 UNK     1       3.066  33.591 236.094  1.00  0.00     0.015 A 
ATOM     12  C13 UNK     1       3.813  32.393 238.478  1.00  0.00     0.037 A 
ATOM     13  C14 UNK     1       3.986  39.005 238.437  1.00  0.00     0.001 A 
ATOM     14  C15 UNK     1       3.952  38.805 239.814  1.00  0.00     0.001 A 
ATOM     15  C16 UNK     1       3.544  32.279 236.094  1.00  0.00     0.001 A 
ATOM     16  C17 UNK     1       3.917  31.679 237.288  1.00  0.00     0.003 A 
ENDROOT
BRANCH   6  17
ATOM     17  C5  UNK     1       0.863  37.451 236.310  1.00  0.00     0.058 C 
BRANCH  17  18
ATOM     18  C7  UNK     1       1.032  38.060 234.919  1.00  0.00     0.275 C 
BRANCH  18  19
ATOM     19  N1  UNK     1       0.221  37.336 233.947  1.00  0.00     0.080 N 
ATOM     20  C18 UNK     1       1.022  36.969 232.778  1.00  0.00     0.309 C 
ATOM     21  C19 UNK     1      -0.934  38.140 233.540  1.00  0.00     0.309 C 
ENDBRANCH  18  19
ENDBRANCH  17  18
ENDBRANCH   6  17
TORSDOF 3
ENDMDL
MODEL 2
REMARK VINA RESULT:      -6.4      2.586      5.951
REMARK  3 active torsions:
REMARK  status: ('A' for Active; 'I' for Inactive)
REMARK    1  A    between atoms: N1_2  and  C7_9 
REMARK    2  A    between atoms: C5_7  and  C6_8 
REMARK    3  A    between atoms: C5_7  and  C7_9 
ROOT
ATOM      1  O1  UNK     1       0.358  38.960 236.321  1.00  0.00    -0.346 OA
ATOM      2  C1  UNK     1       1.395  36.272 235.253  1.00  0.00    -0.016 C 
ATOM      3  C2  UNK     1       0.663  36.848 234.102  1.00  0.00    -0.017 A 
ATOM      4  C3  UNK     1       2.022  37.099 236.325  1.00  0.00     0.008 A 
ATOM      5  C4  UNK     1      -0.364  37.774 234.353  1.00  0.00    -0.023 A 
ATOM      6  C6  UNK     1       1.375  34.930 235.366  1.00  0.00    -0.012 C 
ATOM      7  C8  UNK     1      -0.681  38.153 235.773  1.00  0.00     0.215 C 
ATOM      8  C9  UNK     1       1.501  38.336 236.760  1.00  0.00     0.080 A 
ATOM      9  C10 UNK     1       0.980  36.509 232.779  1.00  0.00     0.013 A 
ATOM     10  C11 UNK     1      -1.063  38.342 233.281  1.00  0.00     0.010 A 
ATOM     11  C12 UNK     1       3.249  36.675 236.880  1.00  0.00     0.015 A 
ATOM     12  C13 UNK     1       2.195  39.096 237.717  1.00  0.00     0.037 A 
ATOM     13  C14 UNK     1       0.276  37.078 231.718  1.00  0.00     0.001 A 
ATOM     14  C15 UNK     1      -0.745  37.992 231.969  1.00  0.00     0.001 A 
ATOM     15  C16 UNK     1       3.921  37.431 237.843  1.00  0.00     0.001 A 
ATOM     16  C17 UNK     1       3.393  38.642 238.263  1.00  0.00     0.003 A 
ENDROOT
BRANCH   6  17
ATOM     17  C5  UNK     1       0.665  34.028 234.408  1.00  0.00     0.058 C 
BRANCH  17  18
ATOM     18  C7  UNK     1       1.292  32.634 234.402  1.00  0.00     0.275 C 
BRANCH  18  19
ATOM     19  N1  UNK     1       1.777  32.292 235.734  1.00  0.00     0.080 N 
ATOM     20  C18 UNK     1       3.125  31.727 235.662  1.00  0.00     0.309 C 
ATOM     21  C19 UNK     1       0.865  31.350 236.387  1.00  0.00     0.309 C 
ENDBRANCH  18  19
ENDBRANCH  17  18
ENDBRANCH   6  17
TORSDOF 3
ENDMDL
MODEL 3
REMARK VINA RESULT:      -6.2      2.818      5.379
REMARK  3 active torsions:
REMARK  status: ('A' for Active; 'I' for Inactive)
REMARK    1  A    between atoms: N1_2  and  C7_9 
REMARK    2  A    between atoms: C5_7  and  C6_8 
REMARK    3  A    between atoms: C5_7  and  C7_9 
ROOT
ATOM      1  O1  UNK     1       2.236  39.105 236.609  1.00  0.00    -0.346 OA
ATOM      2  C1  UNK     1       0.949  36.522 237.661  1.00  0.00    -0.016 C 
ATOM      3  C2  UNK     1       0.851  36.388 236.189  1.00  0.00    -0.017 A 
ATOM      4  C3  UNK     1       2.002  37.326 238.345  1.00  0.00     0.008 A 
ATOM      5  C4  UNK     1       0.837  37.555 235.407  1.00  0.00    -0.023 A 
ATOM      6  C6  UNK     1      -0.048  35.970 238.380  1.00  0.00    -0.012 C 
ATOM      7  C8  UNK     1       0.928  38.894 236.084  1.00  0.00     0.215 C 
ATOM      8  C9  UNK     1       2.563  38.500 237.798  1.00  0.00     0.080 A 
ATOM      9  C10 UNK     1       0.793  35.135 235.562  1.00  0.00     0.013 A 
ATOM     10  C11 UNK     1       0.759  37.455 234.012  1.00  0.00     0.010 A 
ATOM     11  C12 UNK     1       2.535  36.852 239.563  1.00  0.00     0.015 A 
ATOM     12  C13 UNK     1       3.611  39.157 238.466  1.00  0.00     0.037 A 
ATOM     13  C14 UNK     1       0.711  35.046 234.172  1.00  0.00     0.001 A 
ATOM     14  C15 UNK     1       0.693  36.204 233.399  1.00  0.00     0.001 A 
ATOM     15  C16 UNK     1       3.565  37.524 240.226  1.00  0.00     0.001 A 
ATOM     16  C17 UNK     1       4.103  38.678 239.677  1.00  0.00     0.003 A 
ENDROOT
BRANCH   6  17
ATOM     17  C5  UNK     1      -1.210  35.252 237.773  1.00  0.00     0.058 C 
BRANCH  17  18
ATOM     18  C7  UNK     1      -2.533  35.824 238.280  1.00  0.00     0.275 C 
BRANCH  18  19
ATOM     19  N1  UNK     1      -3.481  35.958 237.180  1.00  0.00     0.080 N 
ATOM     20  C18 UNK     1      -4.258  34.728 237.017  1.00  0.00     0.309 C 
ATOM     21  C19 UNK     1      -2.783  36.287 235.936  1.00  0.00     0.309 C 
ENDBRANCH  18  19
ENDBRANCH  17  18
ENDBRANCH   6  17
TORSDOF 3
ENDMDL
MODEL 4
REMARK VINA RESULT:      -6.2      2.862      5.785
REMARK  3 active torsions:
REMARK  status: ('A' for Active; 'I' for Inactive)
REMARK    1  A    between atoms: N1_2  and  C7_9 
REMARK    2  A    between atoms: C5_7  and  C6_8 
REMARK    3  A    between atoms: C5_7  and  C7_9 
ROOT
ATOM      1  O1  UNK     1       0.279  38.884 236.002  1.00  0.00    -0.346 OA
ATOM      2  C1  UNK     1       1.294  36.159 235.013  1.00  0.00    -0.016 C 
ATOM      3  C2  UNK     1       0.606  36.727 233.831  1.00  0.00    -0.017 A 
ATOM      4  C3  UNK     1       1.906  36.994 236.088  1.00  0.00     0.008 A 
ATOM      5  C4  UNK     1      -0.409  37.676 234.036  1.00  0.00    -0.023 A 
ATOM      6  C6  UNK     1       1.245  34.820 235.150  1.00  0.00    -0.012 C 
ATOM      7  C8  UNK     1      -0.759  38.087 235.438  1.00  0.00     0.215 C 
ATOM      8  C9  UNK     1       1.396  38.248 236.485  1.00  0.00     0.080 A 
ATOM      9  C10 UNK     1       0.955  36.358 232.524  1.00  0.00     0.013 A 
ATOM     10  C11 UNK     1      -1.067  38.237 232.933  1.00  0.00     0.010 A 
ATOM     11  C12 UNK     1       3.109  36.557 236.685  1.00  0.00     0.015 A 
ATOM     12  C13 UNK     1       2.077  39.013 237.448  1.00  0.00     0.037 A 
ATOM     13  C14 UNK     1       0.292  36.920 231.433  1.00  0.00     0.001 A 
ATOM     14  C15 UNK     1      -0.717  37.857 231.637  1.00  0.00     0.001 A 
ATOM     15  C16 UNK     1       3.767  37.319 237.653  1.00  0.00     0.001 A 
ATOM     16  C17 UNK     1       3.250  38.547 238.036  1.00  0.00     0.003 A 
ENDROOT
BRANCH   6  17
ATOM     17  C5  UNK     1       0.546  33.913 234.188  1.00  0.00     0.058 C 
BRANCH  17  18
ATOM     18  C7  UNK     1      -0.712  33.314 234.816  1.00  0.00     0.275 C 
BRANCH  18  19
ATOM     19  N1  UNK     1      -1.834  34.234 234.675  1.00  0.00     0.080 N 
ATOM     20  C18 UNK     1      -2.986  33.763 235.446  1.00  0.00     0.309 C 
ATOM     21  C19 UNK     1      -2.197  34.391 233.265  1.00  0.00     0.309 C 
ENDBRANCH  18  19
ENDBRANCH  17  18
ENDBRANCH   6  17
TORSDOF 3
ENDMDL
MODEL 5
REMARK VINA RESULT:      -6.1      2.092      5.175
REMARK  3 active torsions:
REMARK  status: ('A' for Active; 'I' for Inactive)
REMARK    1  A    between atoms: N1_2  and  C7_9 
REMARK    2  A    between atoms: C5_7  and  C6_8 
REMARK    3  A    between atoms: C5_7  and  C7_9 
ROOT
ATOM      1  O1  UNK     1       2.411  35.839 237.673  1.00  0.00    -0.346 OA
ATOM      2  C1  UNK     1       0.998  36.811 235.124  1.00  0.00    -0.016 C 
ATOM      3  C2  UNK     1       0.750  35.350 235.127  1.00  0.00    -0.017 A 
ATOM      4  C3  UNK     1       1.233  37.607 236.363  1.00  0.00     0.008 A 
ATOM      5  C4  UNK     1       1.654  34.517 235.807  1.00  0.00    -0.023 A 
ATOM      6  C6  UNK     1       1.125  37.395 233.917  1.00  0.00    -0.012 C 
ATOM      7  C8  UNK     1       2.832  35.129 236.511  1.00  0.00     0.215 C 
ATOM      8  C9  UNK     1       1.878  37.094 237.509  1.00  0.00     0.080 A 
ATOM      9  C10 UNK     1      -0.365  34.788 234.490  1.00  0.00     0.013 A 
ATOM     10  C11 UNK     1       1.434  33.134 235.835  1.00  0.00     0.010 A 
ATOM     11  C12 UNK     1       0.709  38.916 236.439  1.00  0.00     0.015 A 
ATOM     12  C13 UNK     1       1.987  37.881 238.668  1.00  0.00     0.037 A 
ATOM     13  C14 UNK     1      -0.573  33.409 234.521  1.00  0.00     0.001 A 
ATOM     14  C15 UNK     1       0.326  32.584 235.192  1.00  0.00     0.001 A 
ATOM     15  C16 UNK     1       0.840  39.695 237.591  1.00  0.00     0.001 A 
ATOM     16  C17 UNK     1       1.480  39.177 238.706  1.00  0.00     0.003 A 
ENDROOT
BRANCH   6  17
ATOM     17  C5  UNK     1       1.030  36.653 232.622  1.00  0.00     0.058 C 
BRANCH  17  18
ATOM     18  C7  UNK     1       0.062  37.345 231.664  1.00  0.00     0.275 C 
BRANCH  18  19
ATOM     19  N1  UNK     1      -1.222  37.570 232.317  1.00  0.00     0.080 N 
ATOM     20  C18 UNK     1      -2.224  36.622 231.825  1.00  0.00     0.309 C 
ATOM     21  C19 UNK     1      -1.675  38.945 232.102  1.00  0.00     0.309 C 
ENDBRANCH  18  19
ENDBRANCH  17  18
ENDBRANCH   6  17
TORSDOF 3
ENDMDL
MODEL 6
REMARK VINA RESULT:      -6.1      2.512      5.585
REMARK  3 active torsions:
REMARK  status: ('A' for Active; 'I' for Inactive)
REMARK    1  A    between atoms: N1_2  and  C7_9 
REMARK    2  A    between atoms: C5_7  and  C6_8 
REMARK    3  A    between atoms: C5_7  and  C7_9 
ROOT
ATOM      1  O1  UNK     1       0.140  33.404 233.696  1.00  0.00    -0.346 OA
ATOM      2  C1  UNK     1       1.113  35.795 235.362  1.00  0.00    -0.016 C 
ATOM      3  C2  UNK     1       1.680  34.622 236.068  1.00  0.00    -0.017 A 
ATOM      4  C3  UNK     1       0.797  35.803 233.904  1.00  0.00     0.008 A 
ATOM      5  C4  UNK     1       1.036  33.380 235.932  1.00  0.00    -0.023 A 
ATOM      6  C6  UNK     1       0.773  36.848 236.129  1.00  0.00    -0.012 C 
ATOM      7  C8  UNK     1      -0.195  33.280 235.076  1.00  0.00     0.215 C 
ATOM      8  C9  UNK     1       0.367  34.662 233.194  1.00  0.00     0.080 A 
ATOM      9  C10 UNK     1       2.843  34.717 236.844  1.00  0.00     0.013 A 
ATOM     10  C11 UNK     1       1.559  32.254 236.579  1.00  0.00     0.010 A 
ATOM     11  C12 UNK     1       1.020  36.987 233.168  1.00  0.00     0.015 A 
ATOM     12  C13 UNK     1       0.169  34.731 231.804  1.00  0.00     0.037 A 
ATOM     13  C14 UNK     1       3.354  33.589 237.487  1.00  0.00     0.001 A 
ATOM     14  C15 UNK     1       2.713  32.360 237.355  1.00  0.00     0.001 A 
ATOM     15  C16 UNK     1       0.803  37.047 231.790  1.00  0.00     0.001 A 
ATOM     16  C17 UNK     1       0.376  35.918 231.107  1.00  0.00     0.003 A 
ENDROOT
BRANCH   6  17
ATOM     17  C5  UNK     1       0.937  36.881 237.615  1.00  0.00     0.058 C 
BRANCH  17  18
ATOM     18  C7  UNK     1       1.053  38.318 238.122  1.00  0.00     0.275 C 
BRANCH  18  19
ATOM     19  N1  UNK     1       2.277  38.483 238.897  1.00  0.00     0.080 N 
ATOM     20  C18 UNK     1       3.378  38.919 238.036  1.00  0.00     0.309 C 
ATOM     21  C19 UNK     1       2.628  37.235 239.577  1.00  0.00     0.309 C 
ENDBRANCH  18  19
ENDBRANCH  17  18
ENDBRANCH   6  17
TORSDOF 3
ENDMDL
MODEL 7
REMARK VINA RESULT:      -6.1      3.806      6.174
REMARK  3 active torsions:
REMARK  status: ('A' for Active; 'I' for Inactive)
REMARK    1  A    between atoms: N1_2  and  C7_9 
REMARK    2  A    between atoms: C5_7  and  C6_8 
REMARK    3  A    between atoms: C5_7  and  C7_9 
ROOT
ATOM      1  O1  UNK     1      -1.361  37.034 236.771  1.00  0.00    -0.346 OA
ATOM      2  C1  UNK     1       0.270  37.653 234.243  1.00  0.00    -0.016 C 
ATOM      3  C2  UNK     1      -1.133  37.857 233.814  1.00  0.00    -0.017 A 
ATOM      4  C3  UNK     1       0.730  37.814 235.653  1.00  0.00     0.008 A 
ATOM      5  C4  UNK     1      -2.152  37.176 234.500  1.00  0.00    -0.023 A 
ATOM      6  C6  UNK     1       1.121  37.189 233.308  1.00  0.00    -0.012 C 
ATOM      7  C8  UNK     1      -1.789  36.272 235.645  1.00  0.00     0.215 C 
ATOM      8  C9  UNK     1      -0.078  37.523 236.773  1.00  0.00     0.080 A 
ATOM      9  C10 UNK     1      -1.466  38.722 232.761  1.00  0.00     0.013 A 
ATOM     10  C11 UNK     1      -3.487  37.362 234.122  1.00  0.00     0.010 A 
ATOM     11  C12 UNK     1       2.007  38.366 235.893  1.00  0.00     0.015 A 
ATOM     12  C13 UNK     1       0.399  37.779 238.071  1.00  0.00     0.037 A 
ATOM     13  C14 UNK     1      -2.799  38.897 232.390  1.00  0.00     0.001 A 
ATOM     14  C15 UNK     1      -3.807  38.218 233.068  1.00  0.00     0.001 A 
ATOM     15  C16 UNK     1       2.476  38.599 237.187  1.00  0.00     0.001 A 
ATOM     16  C17 UNK     1       1.671  38.305 238.278  1.00  0.00     0.003 A 
ENDROOT
BRANCH   6  17
ATOM     17  C5  UNK     1       0.721  36.881 231.901  1.00  0.00     0.058 C 
BRANCH  17  18
ATOM     18  C7  UNK     1       0.311  35.416 231.757  1.00  0.00     0.275 C 
BRANCH  18  19
ATOM     19  N1  UNK     1      -0.745  35.282 230.759  1.00  0.00     0.080 N 
ATOM     20  C18 UNK     1      -0.767  36.446 229.872  1.00  0.00     0.309 C 
ATOM     21  C19 UNK     1      -2.047  35.112 231.408  1.00  0.00     0.309 C 
ENDBRANCH  18  19
ENDBRANCH  17  18
ENDBRANCH   6  17
TORSDOF 3
ENDMDL
MODEL 8
REMARK VINA RESULT:      -5.9      3.884      6.871
REMARK  3 active torsions:
REMARK  status: ('A' for Active; 'I' for Inactive)
REMARK    1  A    between atoms: N1_2  and  C7_9 
REMARK    2  A    between atoms: C5_7  and  C6_8 
REMARK    3  A    between atoms: C5_7  and  C7_9 
ROOT
ATOM      1  O1  UNK     1      -0.126  35.248 230.269  1.00  0.00    -0.346 OA
ATOM      2  C1  UNK     1       0.258  36.050 233.209  1.00  0.00    -0.016 C 
ATOM      3  C2  UNK     1      -0.455  37.208 232.620  1.00  0.00    -0.017 A 
ATOM      4  C3  UNK     1       0.146  34.660 232.680  1.00  0.00     0.008 A 
ATOM      5  C4  UNK     1      -0.330  37.442 231.241  1.00  0.00    -0.023 A 
ATOM      6  C6  UNK     1       1.129  36.323 234.200  1.00  0.00    -0.012 C 
ATOM      7  C8  UNK     1       0.512  36.514 230.410  1.00  0.00     0.215 C 
ATOM      8  C9  UNK     1      -0.045  34.360 231.314  1.00  0.00     0.080 A 
ATOM      9  C10 UNK     1      -1.258  38.055 233.396  1.00  0.00     0.013 A 
ATOM     10  C11 UNK     1      -1.003  38.523 230.657  1.00  0.00     0.010 A 
ATOM     11  C12 UNK     1       0.142  33.584 233.593  1.00  0.00     0.015 A 
ATOM     12  C13 UNK     1      -0.224  33.028 230.904  1.00  0.00     0.037 A 
ATOM     13  C14 UNK     1      -1.922  39.130 232.806  1.00  0.00     0.001 A 
ATOM     14  C15 UNK     1      -1.794  39.364 231.440  1.00  0.00     0.001 A 
ATOM     15  C16 UNK     1      -0.019  32.262 233.171  1.00  0.00     0.001 A 
ATOM     16  C17 UNK     1      -0.202  31.984 231.824  1.00  0.00     0.003 A 
ENDROOT
BRANCH   6  17
ATOM     17  C5  UNK     1       1.399  37.703 234.711  1.00  0.00     0.058 C 
BRANCH  17  18
ATOM     18  C7  UNK     1       1.333  37.744 236.237  1.00  0.00     0.275 C 
BRANCH  18  19
ATOM     19  N1  UNK     1       1.956  38.964 236.737  1.00  0.00     0.080 N 
ATOM     20  C18 UNK     1       3.053  38.645 237.652  1.00  0.00     0.309 C 
ATOM     21  C19 UNK     1       0.965  39.810 237.407  1.00  0.00     0.309 C 
ENDBRANCH  18  19
ENDBRANCH  17  18
ENDBRANCH   6  17
TORSDOF 3
ENDMDL
MODEL 9
REMARK VINA RESULT:      -5.9      4.369      7.639
REMARK  3 active torsions:
REMARK  status: ('A' for Active; 'I' for Inactive)
REMARK    1  A    between atoms: N1_2  and  C7_9 
REMARK    2  A    between atoms: C5_7  and  C6_8 
REMARK    3  A    between atoms: C5_7  and  C7_9 
ROOT
ATOM      1  O1  UNK     1      -2.721  38.030 231.265  1.00  0.00    -0.346 OA
ATOM      2  C1  UNK     1      -0.785  37.433 233.574  1.00  0.00    -0.016 C 
ATOM      3  C2  UNK     1      -2.123  37.266 234.186  1.00  0.00    -0.017 A 
ATOM      4  C3  UNK     1      -0.515  37.234 232.120  1.00  0.00     0.008 A 
ATOM      5  C4  UNK     1      -3.211  37.952 233.622  1.00  0.00    -0.023 A 
ATOM      6  C6  UNK     1       0.189  37.901 234.379  1.00  0.00    -0.012 C 
ATOM      7  C8  UNK     1      -2.986  38.824 232.419  1.00  0.00     0.215 C 
ATOM      8  C9  UNK     1      -1.458  37.516 231.108  1.00  0.00     0.080 A 
ATOM      9  C10 UNK     1      -2.330  36.431 235.293  1.00  0.00     0.013 A 
ATOM     10  C11 UNK     1      -4.489  37.800 234.175  1.00  0.00     0.010 A 
ATOM     11  C12 UNK     1       0.710  36.652 231.730  1.00  0.00     0.015 A 
ATOM     12  C13 UNK     1      -1.159  37.224 229.766  1.00  0.00     0.037 A 
ATOM     13  C14 UNK     1      -3.606  36.289 235.839  1.00  0.00     0.001 A 
ATOM     14  C15 UNK     1      -4.683  36.973 235.282  1.00  0.00     0.001 A 
ATOM     15  C16 UNK     1       1.002  36.383 230.391  1.00  0.00     0.001 A 
ATOM     16  C17 UNK     1       0.067  36.669 229.408  1.00  0.00     0.003 A 
ENDROOT
BRANCH   6  17
ATOM     17  C5  UNK     1      -0.020  38.247 235.818  1.00  0.00     0.058 C 
BRANCH  17  18
ATOM     18  C7  UNK     1       1.276  38.089 236.613  1.00  0.00     0.275 C 
BRANCH  18  19
ATOM     19  N1  UNK     1       1.557  39.304 237.369  1.00  0.00     0.080 N 
ATOM     20  C18 UNK     1       2.804  39.165 238.124  1.00  0.00     0.309 C 
ATOM     21  C19 UNK     1       0.448  39.615 238.273  1.00  0.00     0.309 C 
ENDBRANCH  18  19
ENDBRANCH  17  18
ENDBRANCH   6  17
TORSDOF 3
ENDMDL
