MODEL 1
REMARK VINA RESULT:      -6.5      0.000      0.000
REMARK  5 active torsions:
REMARK  status: ('A' for Active; 'I' for Inactive)
REMARK    1  A    between atoms: C1_1  and  C9_13 
REMARK    2  A    between atoms: N1_11  and  C15_19 
REMARK    3  A    between atoms: C9_13  and  C10_14 
REMARK    4  A    between atoms: C10_14  and  C13_17 
REMARK    5  A    between atoms: C13_17  and  C15_19 
ROOT
ATOM      1  C2  UNK     1       0.501  34.600 233.986  1.00  0.00     0.012 A 
ATOM      2  C4  UNK     1       0.436  34.635 232.464  1.00  0.00     0.023 A 
ATOM      3  C8  UNK     1       0.613  35.967 230.202  1.00  0.00     0.099 C 
ATOM      4  O1  UNK     1       1.259  37.566 236.428  1.00  0.00    -0.366 OA
ATOM      5  N2  UNK     1       0.564  36.004 229.040  1.00  0.00    -0.191 NA
ATOM      6  C9  UNK     1       0.956  36.180 236.288  1.00  0.00     0.116 A 
ATOM      7  C11 UNK     1       0.819  35.885 234.800  1.00  0.00    -0.011 A 
ATOM      8  C12 UNK     1       1.054  37.151 234.073  1.00  0.00    -0.023 A 
ATOM      9  C14 UNK     1       1.330  38.188 235.075  1.00  0.00     0.209 A 
ATOM     10  C16 UNK     1       0.989  37.190 232.525  1.00  0.00     0.032 A 
ATOM     11  C18 UNK     1       0.677  35.923 231.734  1.00  0.00     0.045 A 
ENDROOT
BRANCH   6  12
ATOM     12  C1  UNK     1      -0.319  35.928 237.042  1.00  0.00    -0.019 A 
ATOM     13  C3  UNK     1      -0.300  34.991 238.256  1.00  0.00     0.013 A 
ATOM     14  C19 UNK     1      -1.592  34.712 239.043  1.00  0.00     0.043 A 
ATOM     15  C6  UNK     1      -2.894  35.363 238.615  1.00  0.00     0.116 A 
ATOM     16  C5  UNK     1      -2.923  36.295 237.404  1.00  0.00     0.043 A 
ATOM     17  F1  UNK     1      -4.023  35.123 239.301  1.00  0.00    -0.206 F 
ATOM     18  C17 UNK     1      -1.630  36.569 236.620  1.00  0.00     0.013 A 
ENDBRANCH   6  12
BRANCH   6  19
ATOM     19  C10 UNK     1       2.082  35.353 236.953  1.00  0.00     0.050 C 
BRANCH  19  20
ATOM     20  C13 UNK     1       3.311  36.208 237.341  1.00  0.00     0.034 C 
BRANCH  20  21
ATOM     21  C15 UNK     1       3.228  36.578 238.824  1.00  0.00     0.271 C 
BRANCH  21  22
ATOM     22  N1  UNK     1       4.071  37.711 239.136  1.00  0.00     0.080 N 
ATOM     23  C7  UNK     1       4.246  37.850 240.604  1.00  0.00     0.309 C 
ATOM     24  C20 UNK     1       3.530  38.923 238.569  1.00  0.00     0.309 C 
ENDBRANCH  21  22
ENDBRANCH  20  21
ENDBRANCH  19  20
ENDBRANCH   6  19
TORSDOF 5
ENDMDL
MODEL 2
REMARK VINA RESULT:      -6.4      2.504      6.790
REMARK  5 active torsions:
REMARK  status: ('A' for Active; 'I' for Inactive)
REMARK    1  A    between atoms: C1_1  and  C9_13 
REMARK    2  A    between atoms: N1_11  and  C15_19 
REMARK    3  A    between atoms: C9_13  and  C10_14 
REMARK    4  A    between atoms: C10_14  and  C13_17 
REMARK    5  A    between atoms: C13_17  and  C15_19 
ROOT
ATOM      1  C2  UNK     1       1.623  38.312 235.500  1.00  0.00     0.012 A 
ATOM      2  C4  UNK     1       2.439  38.458 236.779  1.00  0.00     0.023 A 
ATOM      3  C8  UNK     1       3.688  37.373 238.825  1.00  0.00     0.099 C 
ATOM      4  O1  UNK     1       0.402  35.007 233.792  1.00  0.00    -0.366 OA
ATOM      5  N2  UNK     1       4.312  37.475 239.802  1.00  0.00    -0.191 NA
ATOM      6  C9  UNK     1       0.438  36.431 233.750  1.00  0.00     0.116 A 
ATOM      7  C11 UNK     1       1.225  36.909 234.964  1.00  0.00    -0.011 A 
ATOM      8  C12 UNK     1       1.650  35.710 235.718  1.00  0.00    -0.023 A 
ATOM      9  C14 UNK     1       1.146  34.536 234.994  1.00  0.00     0.209 A 
ATOM     10  C16 UNK     1       2.481  35.854 237.018  1.00  0.00     0.032 A 
ATOM     11  C18 UNK     1       2.867  37.237 237.537  1.00  0.00     0.045 A 
ENDROOT
BRANCH   6  12
ATOM     12  C1  UNK     1      -0.985  36.911 233.765  1.00  0.00    -0.019 A 
ATOM     13  C3  UNK     1      -1.322  38.283 233.169  1.00  0.00     0.013 A 
ATOM     14  C19 UNK     1      -2.770  38.801 233.175  1.00  0.00     0.043 A 
ATOM     15  C6  UNK     1      -3.873  37.951 233.779  1.00  0.00     0.116 A 
ATOM     16  C5  UNK     1      -3.547  36.584 234.378  1.00  0.00     0.043 A 
ATOM     17  F1  UNK     1      -5.139  38.399 233.783  1.00  0.00    -0.206 F 
ATOM     18  C17 UNK     1      -2.098  36.073 234.371  1.00  0.00     0.013 A 
ENDBRANCH   6  12
BRANCH   6  19
ATOM     19  C10 UNK     1       1.084  36.876 232.415  1.00  0.00     0.050 C 
BRANCH  19  20
ATOM     20  C13 UNK     1       0.688  35.974 231.223  1.00  0.00     0.034 C 
BRANCH  20  21
ATOM     21  C15 UNK     1       0.238  36.847 230.049  1.00  0.00     0.271 C 
BRANCH  21  22
ATOM     22  N1  UNK     1      -1.098  36.504 229.614  1.00  0.00     0.080 N 
ATOM     23  C7  UNK     1      -1.969  37.706 229.587  1.00  0.00     0.309 C 
ATOM     24  C20 UNK     1      -1.665  35.481 230.461  1.00  0.00     0.309 C 
ENDBRANCH  21  22
ENDBRANCH  20  21
ENDBRANCH  19  20
ENDBRANCH   6  19
TORSDOF 5
ENDMDL
MODEL 3
REMARK VINA RESULT:      -6.3      3.668      5.857
REMARK  5 active torsions:
REMARK  status: ('A' for Active; 'I' for Inactive)
REMARK    1  A    between atoms: C1_1  and  C9_13 
REMARK    2  A    between atoms: N1_11  and  C15_19 
REMARK    3  A    between atoms: C9_13  and  C10_14 
REMARK    4  A    between atoms: C10_14  and  C13_17 
REMARK    5  A    between atoms: C13_17  and  C15_19 
ROOT
ATOM      1  C2  UNK     1       0.872  36.904 231.786  1.00  0.00     0.012 A 
ATOM      2  C4  UNK     1       1.035  36.238 230.425  1.00  0.00     0.023 A 
ATOM      3  C8  UNK     1       0.479  34.275 228.764  1.00  0.00     0.099 C 
ATOM      4  O1  UNK     1      -1.273  35.675 234.822  1.00  0.00    -0.366 OA
ATOM      5  N2  UNK     1       0.597  33.759 227.728  1.00  0.00    -0.191 NA
ATOM      6  C9  UNK     1      -0.394  36.671 234.305  1.00  0.00     0.116 A 
ATOM      7  C11 UNK     1      -0.028  36.270 232.882  1.00  0.00    -0.011 A 
ATOM      8  C12 UNK     1      -0.727  35.001 232.585  1.00  0.00    -0.023 A 
ATOM      9  C14 UNK     1      -1.498  34.635 233.779  1.00  0.00     0.209 A 
ATOM     10  C16 UNK     1      -0.565  34.321 231.201  1.00  0.00     0.032 A 
ATOM     11  C18 UNK     1       0.321  34.953 230.131  1.00  0.00     0.045 A 
ENDROOT
BRANCH   6  12
ATOM     12  C1  UNK     1       0.802  36.720 235.212  1.00  0.00    -0.019 A 
ATOM     13  C3  UNK     1       1.381  38.080 235.619  1.00  0.00     0.013 A 
ATOM     14  C19 UNK     1       2.608  38.160 236.542  1.00  0.00     0.043 A 
ATOM     15  C6  UNK     1       3.254  36.884 237.052  1.00  0.00     0.116 A 
ATOM     16  C5  UNK     1       2.686  35.524 236.650  1.00  0.00     0.043 A 
ATOM     17  F1  UNK     1       4.324  36.950 237.861  1.00  0.00    -0.206 F 
ATOM     18  C17 UNK     1       1.461  35.451 235.725  1.00  0.00     0.013 A 
ENDBRANCH   6  12
BRANCH   6  19
ATOM     19  C10 UNK     1      -1.104  38.045 234.367  1.00  0.00     0.050 C 
BRANCH  19  20
ATOM     20  C13 UNK     1      -2.239  38.186 233.326  1.00  0.00     0.034 C 
BRANCH  20  21
ATOM     21  C15 UNK     1      -1.902  39.319 232.354  1.00  0.00     0.271 C 
BRANCH  21  22
ATOM     22  N1  UNK     1      -2.378  39.031 231.019  1.00  0.00     0.080 N 
ATOM     23  C7  UNK     1      -2.828  37.620 230.913  1.00  0.00     0.309 C 
ATOM     24  C20 UNK     1      -1.357  39.317 230.038  1.00  0.00     0.309 C 
ENDBRANCH  21  22
ENDBRANCH  20  21
ENDBRANCH  19  20
ENDBRANCH   6  19
TORSDOF 5
ENDMDL
MODEL 4
REMARK VINA RESULT:      -6.3      2.777      3.850
REMARK  5 active torsions:
REMARK  status: ('A' for Active; 'I' for Inactive)
REMARK    1  A    between atoms: C1_1  and  C9_13 
REMARK    2  A    between atoms: N1_11  and  C15_19 
REMARK    3  A    between atoms: C9_13  and  C10_14 
REMARK    4  A    between atoms: C10_14  and  C13_17 
REMARK    5  A    between atoms: C13_17  and  C15_19 
ROOT
ATOM      1  C2  UNK     1       1.123  37.025 233.212  1.00  0.00     0.012 A 
ATOM      2  C4  UNK     1       0.183  37.558 232.138  1.00  0.00     0.023 A 
ATOM      3  C8  UNK     1      -2.176  38.479 231.424  1.00  0.00     0.099 C 
ATOM      4  O1  UNK     1       0.366  36.476 237.014  1.00  0.00    -0.366 OA
ATOM      5  N2  UNK     1      -2.902  38.887 230.611  1.00  0.00    -0.191 NA
ATOM      6  C9  UNK     1       1.322  36.386 235.961  1.00  0.00     0.116 A 
ATOM      7  C11 UNK     1       0.649  36.873 234.684  1.00  0.00    -0.011 A 
ATOM      8  C12 UNK     1      -0.738  37.252 235.030  1.00  0.00    -0.023 A 
ATOM      9  C14 UNK     1      -0.913  37.011 236.467  1.00  0.00     0.209 A 
ATOM     10  C16 UNK     1      -1.697  37.795 233.940  1.00  0.00     0.032 A 
ATOM     11  C18 UNK     1      -1.222  37.942 232.497  1.00  0.00     0.045 A 
ENDROOT
BRANCH   6  12
ATOM     12  C1  UNK     1       1.749  34.949 235.872  1.00  0.00    -0.019 A 
ATOM     13  C3  UNK     1       2.985  34.482 236.651  1.00  0.00     0.013 A 
ATOM     14  C19 UNK     1       3.447  33.018 236.573  1.00  0.00     0.043 A 
ATOM     15  C6  UNK     1       2.678  32.027 235.718  1.00  0.00     0.116 A 
ATOM     16  C5  UNK     1       1.447  32.483 234.936  1.00  0.00     0.043 A 
ATOM     17  F1  UNK     1       3.078  30.747 235.651  1.00  0.00    -0.206 F 
ATOM     18  C17 UNK     1       0.992  33.949 235.015  1.00  0.00     0.013 A 
ENDBRANCH   6  12
BRANCH   6  19
ATOM     19  C10 UNK     1       2.560  37.235 236.336  1.00  0.00     0.050 C 
BRANCH  19  20
ATOM     20  C13 UNK     1       2.191  38.648 236.846  1.00  0.00     0.034 C 
BRANCH  20  21
ATOM     21  C15 UNK     1       2.203  38.659 238.376  1.00  0.00     0.271 C 
BRANCH  21  22
ATOM     22  N1  UNK     1       3.254  37.816 238.904  1.00  0.00     0.080 N 
ATOM     23  C7  UNK     1       2.697  36.793 239.824  1.00  0.00     0.309 C 
ATOM     24  C20 UNK     1       4.260  38.609 239.570  1.00  0.00     0.309 C 
ENDBRANCH  21  22
ENDBRANCH  20  21
ENDBRANCH  19  20
ENDBRANCH   6  19
TORSDOF 5
ENDMDL
MODEL 5
REMARK VINA RESULT:      -6.2      3.197      5.407
REMARK  5 active torsions:
REMARK  status: ('A' for Active; 'I' for Inactive)
REMARK    1  A    between atoms: C1_1  and  C9_13 
REMARK    2  A    between atoms: N1_11  and  C15_19 
REMARK    3  A    between atoms: C9_13  and  C10_14 
REMARK    4  A    between atoms: C10_14  and  C13_17 
REMARK    5  A    between atoms: C13_17  and  C15_19 
ROOT
ATOM      1  C2  UNK     1      -0.408  37.894 233.477  1.00  0.00     0.012 A 
ATOM      2  C4  UNK     1      -0.359  37.915 231.954  1.00  0.00     0.023 A 
ATOM      3  C8  UNK     1       0.119  36.700 229.670  1.00  0.00     0.099 C 
ATOM      4  O1  UNK     1       0.462  34.919 235.870  1.00  0.00    -0.366 OA
ATOM      5  N2  UNK     1       0.161  36.706 228.507  1.00  0.00    -0.191 NA
ATOM      6  C9  UNK     1       0.028  36.272 235.754  1.00  0.00     0.116 A 
ATOM      7  C11 UNK     1      -0.026  36.614 234.270  1.00  0.00    -0.011 A 
ATOM      8  C12 UNK     1       0.393  35.409 233.522  1.00  0.00    -0.023 A 
ATOM      9  C14 UNK     1       0.690  34.362 234.507  1.00  0.00     0.209 A 
ATOM     10  C16 UNK     1       0.444  35.426 231.973  1.00  0.00     0.032 A 
ATOM     11  C18 UNK     1       0.066  36.688 231.203  1.00  0.00     0.045 A 
ENDROOT
BRANCH   6  12
ATOM     12  C1  UNK     1       1.016  37.121 236.502  1.00  0.00    -0.019 A 
ATOM     13  C3  UNK     1       0.529  38.388 237.215  1.00  0.00     0.013 A 
ATOM     14  C19 UNK     1       1.520  39.277 237.984  1.00  0.00     0.043 A 
ATOM     15  C6  UNK     1       2.990  38.901 238.036  1.00  0.00     0.116 A 
ATOM     16  C5  UNK     1       3.484  37.642 237.326  1.00  0.00     0.043 A 
ATOM     17  F1  UNK     1       3.857  39.675 238.709  1.00  0.00    -0.206 F 
ATOM     18  C17 UNK     1       2.490  36.758 236.557  1.00  0.00     0.013 A 
ENDBRANCH   6  12
BRANCH   6  19
ATOM     19  C10 UNK     1      -1.351  36.415 236.443  1.00  0.00     0.050 C 
BRANCH  19  20
ATOM     20  C13 UNK     1      -2.471  35.629 235.722  1.00  0.00     0.034 C 
BRANCH  20  21
ATOM     21  C15 UNK     1      -3.704  36.523 235.568  1.00  0.00     0.271 C 
BRANCH  21  22
ATOM     22  N1  UNK     1      -4.187  36.529 234.205  1.00  0.00     0.080 N 
ATOM     23  C7  UNK     1      -3.401  35.594 233.362  1.00  0.00     0.309 C 
ATOM     24  C20 UNK     1      -4.153  37.864 233.656  1.00  0.00     0.309 C 
ENDBRANCH  21  22
ENDBRANCH  20  21
ENDBRANCH  19  20
ENDBRANCH   6  19
TORSDOF 5
ENDMDL
MODEL 6
REMARK VINA RESULT:      -6.2      3.587      5.754
REMARK  5 active torsions:
REMARK  status: ('A' for Active; 'I' for Inactive)
REMARK    1  A    between atoms: C1_1  and  C9_13 
REMARK    2  A    between atoms: N1_11  and  C15_19 
REMARK    3  A    between atoms: C9_13  and  C10_14 
REMARK    4  A    between atoms: C10_14  and  C13_17 
REMARK    5  A    between atoms: C13_17  and  C15_19 
ROOT
ATOM      1  C2  UNK     1       0.509  34.064 235.385  1.00  0.00     0.012 A 
ATOM      2  C4  UNK     1       1.378  32.861 235.732  1.00  0.00     0.023 A 
ATOM      3  C8  UNK     1       3.610  31.864 236.704  1.00  0.00     0.099 C 
ATOM      4  O1  UNK     1       1.330  37.856 235.914  1.00  0.00    -0.366 OA
ATOM      5  N2  UNK     1       4.282  30.952 236.971  1.00  0.00    -0.191 NA
ATOM      6  C9  UNK     1       0.390  36.890 235.450  1.00  0.00     0.116 A 
ATOM      7  C11 UNK     1       0.999  35.511 235.669  1.00  0.00    -0.011 A 
ATOM      8  C12 UNK     1       2.332  35.706 236.280  1.00  0.00    -0.023 A 
ATOM      9  C14 UNK     1       2.535  37.151 236.435  1.00  0.00     0.209 A 
ATOM     10  C16 UNK     1       3.219  34.485 236.634  1.00  0.00     0.032 A 
ATOM     11  C18 UNK     1       2.728  33.068 236.352  1.00  0.00     0.045 A 
ENDROOT
BRANCH   6  12
ATOM     12  C1  UNK     1       0.136  37.180 233.998  1.00  0.00    -0.019 A 
ATOM     13  C3  UNK     1      -1.036  38.089 233.607  1.00  0.00     0.013 A 
ATOM     14  C19 UNK     1      -1.321  38.399 232.128  1.00  0.00     0.043 A 
ATOM     15  C6  UNK     1      -0.440  37.800 231.047  1.00  0.00     0.116 A 
ATOM     16  C5  UNK     1       0.728  36.891 231.427  1.00  0.00     0.043 A 
ATOM     17  F1  UNK     1      -0.685  38.071 229.755  1.00  0.00    -0.206 F 
ATOM     18  C17 UNK     1       1.007  36.583 232.906  1.00  0.00     0.013 A 
ENDBRANCH   6  12
BRANCH   6  19
ATOM     19  C10 UNK     1      -0.940  37.077 236.219  1.00  0.00     0.050 C 
BRANCH  19  20
ATOM     20  C13 UNK     1      -0.793  36.852 237.742  1.00  0.00     0.034 C 
BRANCH  20  21
ATOM     21  C15 UNK     1      -1.767  35.761 238.194  1.00  0.00     0.271 C 
BRANCH  21  22
ATOM     22  N1  UNK     1      -1.066  34.594 238.681  1.00  0.00     0.080 N 
ATOM     23  C7  UNK     1      -1.893  33.855 239.668  1.00  0.00     0.309 C 
ATOM     24  C20 UNK     1       0.207  34.962 239.254  1.00  0.00     0.309 C 
ENDBRANCH  21  22
ENDBRANCH  20  21
ENDBRANCH  19  20
ENDBRANCH   6  19
TORSDOF 5
ENDMDL
MODEL 7
REMARK VINA RESULT:      -6.1      2.644      4.418
REMARK  5 active torsions:
REMARK  status: ('A' for Active; 'I' for Inactive)
REMARK    1  A    between atoms: C1_1  and  C9_13 
REMARK    2  A    between atoms: N1_11  and  C15_19 
REMARK    3  A    between atoms: C9_13  and  C10_14 
REMARK    4  A    between atoms: C10_14  and  C13_17 
REMARK    5  A    between atoms: C13_17  and  C15_19 
ROOT
ATOM      1  C2  UNK     1      -0.454  37.905 233.629  1.00  0.00     0.012 A 
ATOM      2  C4  UNK     1      -0.393  37.950 232.107  1.00  0.00     0.023 A 
ATOM      3  C8  UNK     1       0.145  36.786 229.810  1.00  0.00     0.099 C 
ATOM      4  O1  UNK     1       0.498  34.927 235.986  1.00  0.00    -0.366 OA
ATOM      5  N2  UNK     1       0.195  36.811 228.647  1.00  0.00    -0.191 NA
ATOM      6  C9  UNK     1       0.018  36.265 235.886  1.00  0.00     0.116 A 
ATOM      7  C11 UNK     1      -0.035  36.627 234.406  1.00  0.00    -0.011 A 
ATOM      8  C12 UNK     1       0.431  35.449 233.644  1.00  0.00    -0.023 A 
ATOM      9  C14 UNK     1       0.756  34.398 234.617  1.00  0.00     0.209 A 
ATOM     10  C16 UNK     1       0.494  35.490 232.096  1.00  0.00     0.032 A 
ATOM     11  C18 UNK     1       0.079  36.750 231.341  1.00  0.00     0.045 A 
ENDROOT
BRANCH   6  12
ATOM     12  C1  UNK     1       0.971  37.136 236.654  1.00  0.00    -0.019 A 
ATOM     13  C3  UNK     1       2.480  36.916 236.501  1.00  0.00     0.013 A 
ATOM     14  C19 UNK     1       3.478  37.790 237.280  1.00  0.00     0.043 A 
ATOM     15  C6  UNK     1       2.966  38.876 238.209  1.00  0.00     0.116 A 
ATOM     16  C5  UNK     1       1.463  39.100 238.370  1.00  0.00     0.043 A 
ATOM     17  F1  UNK     1       3.834  39.642 238.888  1.00  0.00    -0.206 F 
ATOM     18  C17 UNK     1       0.471  38.222 237.591  1.00  0.00     0.013 A 
ENDBRANCH   6  12
BRANCH   6  19
ATOM     19  C10 UNK     1      -1.370  36.352 236.565  1.00  0.00     0.050 C 
BRANCH  19  20
ATOM     20  C13 UNK     1      -1.832  35.004 237.167  1.00  0.00     0.034 C 
BRANCH  20  21
ATOM     21  C15 UNK     1      -1.913  35.126 238.690  1.00  0.00     0.271 C 
BRANCH  21  22
ATOM     22  N1  UNK     1      -1.014  34.200 239.344  1.00  0.00     0.080 N 
ATOM     23  C7  UNK     1       0.316  34.823 239.565  1.00  0.00     0.309 C 
ATOM     24  C20 UNK     1      -0.888  32.983 238.579  1.00  0.00     0.309 C 
ENDBRANCH  21  22
ENDBRANCH  20  21
ENDBRANCH  19  20
ENDBRANCH   6  19
TORSDOF 5
ENDMDL
MODEL 8
REMARK VINA RESULT:      -6.0      3.106      5.786
REMARK  5 active torsions:
REMARK  status: ('A' for Active; 'I' for Inactive)
REMARK    1  A    between atoms: C1_1  and  C9_13 
REMARK    2  A    between atoms: N1_11  and  C15_19 
REMARK    3  A    between atoms: C9_13  and  C10_14 
REMARK    4  A    between atoms: C10_14  and  C13_17 
REMARK    5  A    between atoms: C13_17  and  C15_19 
ROOT
ATOM      1  C2  UNK     1      -1.793  36.789 236.130  1.00  0.00     0.012 A 
ATOM      2  C4  UNK     1      -2.820  36.344 237.164  1.00  0.00     0.023 A 
ATOM      3  C8  UNK     1      -3.461  34.902 239.269  1.00  0.00     0.099 C 
ATOM      4  O1  UNK     1       1.944  35.665 235.815  1.00  0.00    -0.366 OA
ATOM      5  N2  UNK     1      -4.238  34.555 240.063  1.00  0.00    -0.191 NA
ATOM      6  C9  UNK     1       0.891  36.471 235.293  1.00  0.00     0.116 A 
ATOM      7  C11 UNK     1      -0.342  36.235 236.157  1.00  0.00    -0.011 A 
ATOM      8  C12 UNK     1       0.030  35.261 237.205  1.00  0.00    -0.023 A 
ATOM      9  C14 UNK     1       1.441  34.911 236.998  1.00  0.00     0.209 A 
ATOM     10  C16 UNK     1      -1.011  34.806 238.259  1.00  0.00     0.032 A 
ATOM     11  C18 UNK     1      -2.434  35.356 238.225  1.00  0.00     0.045 A 
ENDROOT
BRANCH   6  12
ATOM     12  C1  UNK     1       0.679  36.054 233.866  1.00  0.00    -0.019 A 
ATOM     13  C3  UNK     1       0.093  34.668 233.567  1.00  0.00     0.013 A 
ATOM     14  C19 UNK     1      -0.130  34.214 232.115  1.00  0.00     0.043 A 
ATOM     15  C6  UNK     1       0.234  35.140 230.969  1.00  0.00     0.116 A 
ATOM     16  C5  UNK     1       0.821  36.521 231.257  1.00  0.00     0.043 A 
ATOM     17  F1  UNK     1       0.038  34.747 229.700  1.00  0.00    -0.206 F 
ATOM     18  C17 UNK     1       1.044  36.969 232.710  1.00  0.00     0.013 A 
ENDBRANCH   6  12
BRANCH   6  19
ATOM     19  C10 UNK     1       1.342  37.952 235.302  1.00  0.00     0.050 C 
BRANCH  19  20
ATOM     20  C13 UNK     1       1.116  38.644 236.666  1.00  0.00     0.034 C 
BRANCH  20  21
ATOM     21  C15 UNK     1       2.466  38.891 237.343  1.00  0.00     0.271 C 
BRANCH  21  22
ATOM     22  N1  UNK     1       2.686  37.971 238.437  1.00  0.00     0.080 N 
ATOM     23  C7  UNK     1       2.694  38.689 239.737  1.00  0.00     0.309 C 
ATOM     24  C20 UNK     1       3.916  37.238 238.250  1.00  0.00     0.309 C 
ENDBRANCH  21  22
ENDBRANCH  20  21
ENDBRANCH  19  20
ENDBRANCH   6  19
TORSDOF 5
ENDMDL
MODEL 9
REMARK VINA RESULT:      -5.9      1.927      2.934
REMARK  5 active torsions:
REMARK  status: ('A' for Active; 'I' for Inactive)
REMARK    1  A    between atoms: C1_1  and  C9_13 
REMARK    2  A    between atoms: N1_11  and  C15_19 
REMARK    3  A    between atoms: C9_13  and  C10_14 
REMARK    4  A    between atoms: C10_14  and  C13_17 
REMARK    5  A    between atoms: C13_17  and  C15_19 
ROOT
ATOM      1  C2  UNK     1       0.462  34.689 234.521  1.00  0.00     0.012 A 
ATOM      2  C4  UNK     1       0.468  34.881 233.009  1.00  0.00     0.023 A 
ATOM      3  C8  UNK     1       0.821  36.422 230.906  1.00  0.00     0.099 C 
ATOM      4  O1  UNK     1       1.268  37.343 237.284  1.00  0.00    -0.366 OA
ATOM      5  N2  UNK     1       0.827  36.578 229.753  1.00  0.00    -0.191 NA
ATOM      6  C9  UNK     1       0.896  35.999 236.990  1.00  0.00     0.116 A 
ATOM      7  C11 UNK     1       0.812  35.863 235.475  1.00  0.00    -0.011 A 
ATOM      8  C12 UNK     1       1.149  37.180 234.893  1.00  0.00    -0.023 A 
ATOM      9  C14 UNK     1       1.434  38.093 236.006  1.00  0.00     0.209 A 
ATOM     10  C16 UNK     1       1.156  37.379 233.355  1.00  0.00     0.032 A 
ATOM     11  C18 UNK     1       0.812  36.219 232.426  1.00  0.00     0.045 A 
ENDROOT
BRANCH   6  12
ATOM     12  C1  UNK     1      -0.423  35.747 237.663  1.00  0.00    -0.019 A 
ATOM     13  C3  UNK     1      -1.611  36.665 237.353  1.00  0.00     0.013 A 
ATOM     14  C19 UNK     1      -2.972  36.432 238.031  1.00  0.00     0.043 A 
ATOM     15  C6  UNK     1      -3.141  35.289 239.015  1.00  0.00     0.116 A 
ATOM     16  C5  UNK     1      -1.961  34.370 239.331  1.00  0.00     0.043 A 
ATOM     17  F1  UNK     1      -4.328  35.082 239.606  1.00  0.00    -0.206 F 
ATOM     18  C17 UNK     1      -0.603  34.609 238.653  1.00  0.00     0.013 A 
ENDBRANCH   6  12
BRANCH   6  19
ATOM     19  C10 UNK     1       1.945  35.043 237.610  1.00  0.00     0.050 C 
BRANCH  19  20
ATOM     20  C13 UNK     1       3.008  34.570 236.591  1.00  0.00     0.034 C 
BRANCH  20  21
ATOM     21  C15 UNK     1       3.270  33.075 236.784  1.00  0.00     0.271 C 
BRANCH  21  22
ATOM     22  N1  UNK     1       2.061  32.367 237.143  1.00  0.00     0.080 N 
ATOM     23  C7  UNK     1       2.282  31.521 238.344  1.00  0.00     0.309 C 
ATOM     24  C20 UNK     1       1.587  31.570 236.037  1.00  0.00     0.309 C 
ENDBRANCH  21  22
ENDBRANCH  20  21
ENDBRANCH  19  20
ENDBRANCH   6  19
TORSDOF 5
ENDMDL
