MODEL 1
REMARK VINA RESULT:      -7.2      0.000      0.000
REMARK  4 active torsions:
REMARK  status: ('A' for Active; 'I' for Inactive)
REMARK    1  A    between atoms: N1_6  and  N3_8 
REMARK    2  A    between atoms: N4_10  and  C12_22 
REMARK    3  A    between atoms: C2_12  and  C3_13 
REMARK    4  A    between atoms: C4_14  and  C11_21 
ROOT
ATOM      1  O1  UNK     1      -2.583  41.828 228.543  1.00  0.00    -0.309 OA
ATOM      2  C2  UNK     1      -3.549  40.879 228.615  1.00  0.00     0.086 A 
ATOM      3  C4  UNK     1      -1.622  41.463 229.433  1.00  0.00     0.093 A 
ATOM      4  C7  UNK     1      -3.224  39.915 229.533  1.00  0.00     0.041 A 
ATOM      5  C8  UNK     1      -1.970  40.294 230.067  1.00  0.00     0.041 A 
ENDROOT
BRANCH   3   6
ATOM      6  C11 UNK     1      -0.478  42.301 229.558  1.00  0.00     0.144 C 
ATOM      7  N3  UNK     1      -0.107  43.149 228.630  1.00  0.00    -0.303 N 
ATOM      8  H3  UNK     1      -0.617  43.264 227.754  1.00  0.00     0.186 HD
BRANCH   7   9
ATOM      9  N1  UNK     1       1.002  43.858 228.924  1.00  0.00    -0.234 N 
ATOM     10  C1  UNK     1       2.228  43.242 229.334  1.00  0.00     0.257 A 
ATOM     11  C5  UNK     1       3.086  44.479 229.520  1.00  0.00     0.245 A 
ATOM     12  O2  UNK     1       4.255  44.460 229.877  1.00  0.00    -0.271 OA
ATOM     13  N2  UNK     1       2.332  45.592 229.224  1.00  0.00    -0.276 N 
ATOM     14  C6  UNK     1       1.048  45.244 228.855  1.00  0.00     0.344 A 
ATOM     15  H4  UNK     1       2.674  46.544 229.271  1.00  0.00     0.173 HD
ATOM     16  O3  UNK     1       0.148  46.009 228.536  1.00  0.00    -0.245 OA
ENDBRANCH   7   9
ENDBRANCH   3   6
BRANCH   2  17
ATOM     17  C3  UNK     1      -4.674  41.084 227.736  1.00  0.00    -0.002 A 
ATOM     18  C9  UNK     1      -4.694  42.181 226.874  1.00  0.00     0.017 A 
ATOM     19  C13 UNK     1      -5.782  42.379 226.024  1.00  0.00     0.037 A 
ATOM     20  C12 UNK     1      -6.850  41.481 226.036  1.00  0.00     0.102 A 
ATOM     21  C14 UNK     1      -6.829  40.384 226.899  1.00  0.00     0.037 A 
ATOM     22  C10 UNK     1      -5.742  40.187 227.748  1.00  0.00     0.017 A 
BRANCH  20  23
ATOM     23  N4  UNK     1      -7.958  41.684 225.171  1.00  0.00    -0.116 N 
ATOM     24  O4  UNK     1      -8.925  42.375 225.573  1.00  0.00    -0.532 OA
ATOM     25  O5  UNK     1      -7.939  41.167 224.027  1.00  0.00    -0.532 OA
ENDBRANCH  20  23
ENDBRANCH   2  17
TORSDOF 4
ENDMDL
MODEL 2
REMARK VINA RESULT:      -7.1      4.405      7.300
REMARK  4 active torsions:
REMARK  status: ('A' for Active; 'I' for Inactive)
REMARK    1  A    between atoms: N1_6  and  N3_8 
REMARK    2  A    between atoms: N4_10  and  C12_22 
REMARK    3  A    between atoms: C2_12  and  C3_13 
REMARK    4  A    between atoms: C4_14  and  C11_21 
ROOT
ATOM      1  O1  UNK     1      -0.776  40.260 230.547  1.00  0.00    -0.309 OA
ATOM      2  C2  UNK     1      -1.576  39.198 230.815  1.00  0.00     0.086 A 
ATOM      3  C4  UNK     1      -1.493  41.084 229.738  1.00  0.00     0.093 A 
ATOM      4  C7  UNK     1      -2.790  39.327 230.193  1.00  0.00     0.041 A 
ATOM      5  C8  UNK     1      -2.738  40.554 229.491  1.00  0.00     0.041 A 
ENDROOT
BRANCH   3   6
ATOM      6  C11 UNK     1      -0.876  42.290 229.302  1.00  0.00     0.144 C 
ATOM      7  N3  UNK     1       0.384  42.571 229.526  1.00  0.00    -0.303 N 
ATOM      8  H3  UNK     1       1.008  41.940 230.029  1.00  0.00     0.186 HD
BRANCH   7   9
ATOM      9  N1  UNK     1       0.793  43.760 229.038  1.00  0.00    -0.234 N 
ATOM     10  C1  UNK     1       0.395  45.010 229.612  1.00  0.00     0.257 A 
ATOM     11  C5  UNK     1       1.129  45.961 228.687  1.00  0.00     0.245 A 
ATOM     12  O2  UNK     1       1.094  47.180 228.782  1.00  0.00    -0.271 OA
ATOM     13  N2  UNK     1       1.818  45.228 227.749  1.00  0.00    -0.276 N 
ATOM     14  C6  UNK     1       1.632  43.872 227.938  1.00  0.00     0.344 A 
ATOM     15  H4  UNK     1       2.389  45.628 227.014  1.00  0.00     0.173 HD
ATOM     16  O3  UNK     1       2.113  42.970 227.266  1.00  0.00    -0.245 OA
ENDBRANCH   7   9
ENDBRANCH   3   6
BRANCH   2  17
ATOM     17  C3  UNK     1      -0.994  38.194 231.672  1.00  0.00    -0.002 A 
ATOM     18  C9  UNK     1      -0.059  37.295 231.156  1.00  0.00     0.017 A 
ATOM     19  C13 UNK     1       0.503  36.323 231.984  1.00  0.00     0.037 A 
ATOM     20  C12 UNK     1       0.133  36.251 233.326  1.00  0.00     0.102 A 
ATOM     21  C14 UNK     1      -0.802  37.149 233.842  1.00  0.00     0.037 A 
ATOM     22  C10 UNK     1      -1.365  38.120 233.014  1.00  0.00     0.017 A 
BRANCH  20  23
ATOM     23  N4  UNK     1       0.706  35.261 234.169  1.00  0.00    -0.116 N 
ATOM     24  O4  UNK     1       1.198  35.610 235.269  1.00  0.00    -0.532 OA
ATOM     25  O5  UNK     1       0.702  34.064 233.790  1.00  0.00    -0.532 OA
ENDBRANCH  20  23
ENDBRANCH   2  17
TORSDOF 4
ENDMDL
MODEL 3
REMARK VINA RESULT:      -6.9      3.734      5.312
REMARK  4 active torsions:
REMARK  status: ('A' for Active; 'I' for Inactive)
REMARK    1  A    between atoms: N1_6  and  N3_8 
REMARK    2  A    between atoms: N4_10  and  C12_22 
REMARK    3  A    between atoms: C2_12  and  C3_13 
REMARK    4  A    between atoms: C4_14  and  C11_21 
ROOT
ATOM      1  O1  UNK     1      -1.900  40.527 230.181  1.00  0.00    -0.309 OA
ATOM      2  C2  UNK     1      -3.107  39.977 229.896  1.00  0.00     0.086 A 
ATOM      3  C4  UNK     1      -1.729  41.551 229.304  1.00  0.00     0.093 A 
ATOM      4  C7  UNK     1      -3.711  40.631 228.854  1.00  0.00     0.041 A 
ATOM      5  C8  UNK     1      -2.816  41.655 228.467  1.00  0.00     0.041 A 
ENDROOT
BRANCH   3   6
ATOM      6  C11 UNK     1      -0.526  42.306 229.387  1.00  0.00     0.144 C 
ATOM      7  N3  UNK     1      -0.429  43.546 228.976  1.00  0.00    -0.303 N 
ATOM      8  H3  UNK     1      -1.215  44.053 228.567  1.00  0.00     0.186 HD
BRANCH   7   9
ATOM      9  N1  UNK     1       0.790  44.101 229.134  1.00  0.00    -0.234 N 
ATOM     10  C1  UNK     1       1.946  43.337 229.492  1.00  0.00     0.257 A 
ATOM     11  C5  UNK     1       2.983  44.443 229.525  1.00  0.00     0.245 A 
ATOM     12  O2  UNK     1       4.165  44.273 229.793  1.00  0.00    -0.271 OA
ATOM     13  N2  UNK     1       2.373  45.635 229.210  1.00  0.00    -0.276 N 
ATOM     14  C6  UNK     1       1.025  45.459 228.965  1.00  0.00     0.344 A 
ATOM     15  H4  UNK     1       2.849  46.528 229.165  1.00  0.00     0.173 HD
ATOM     16  O3  UNK     1       0.219  46.328 228.663  1.00  0.00    -0.245 OA
ENDBRANCH   7   9
ENDBRANCH   3   6
BRANCH   2  17
ATOM     17  C3  UNK     1      -3.481  38.859 230.727  1.00  0.00    -0.002 A 
ATOM     18  C9  UNK     1      -4.112  37.751 230.161  1.00  0.00     0.017 A 
ATOM     19  C13 UNK     1      -4.475  36.670 230.964  1.00  0.00     0.037 A 
ATOM     20  C12 UNK     1      -4.207  36.697 232.333  1.00  0.00     0.102 A 
ATOM     21  C14 UNK     1      -3.577  37.806 232.899  1.00  0.00     0.037 A 
ATOM     22  C10 UNK     1      -3.214  38.886 232.096  1.00  0.00     0.017 A 
BRANCH  20  23
ATOM     23  N4  UNK     1      -4.577  35.596 233.151  1.00  0.00    -0.116 N 
ATOM     24  O4  UNK     1      -5.547  35.721 233.936  1.00  0.00    -0.532 OA
ATOM     25  O5  UNK     1      -3.924  34.527 233.064  1.00  0.00    -0.532 OA
ENDBRANCH  20  23
ENDBRANCH   2  17
TORSDOF 4
ENDMDL
MODEL 4
REMARK VINA RESULT:      -6.8      6.860     11.053
REMARK  4 active torsions:
REMARK  status: ('A' for Active; 'I' for Inactive)
REMARK    1  A    between atoms: N1_6  and  N3_8 
REMARK    2  A    between atoms: N4_10  and  C12_22 
REMARK    3  A    between atoms: C2_12  and  C3_13 
REMARK    4  A    between atoms: C4_14  and  C11_21 
ROOT
ATOM      1  O1  UNK     1       0.120  37.909 233.731  1.00  0.00    -0.309 OA
ATOM      2  C2  UNK     1       0.865  36.879 234.203  1.00  0.00     0.086 A 
ATOM      3  C4  UNK     1      -0.489  37.456 232.603  1.00  0.00     0.093 A 
ATOM      4  C7  UNK     1       0.745  35.776 233.399  1.00  0.00     0.041 A 
ATOM      5  C8  UNK     1      -0.136  36.149 232.357  1.00  0.00     0.041 A 
ENDROOT
BRANCH   3   6
ATOM      6  C11 UNK     1      -1.342  38.352 231.900  1.00  0.00     0.144 C 
ATOM      7  N3  UNK     1      -1.161  38.674 230.643  1.00  0.00    -0.303 N 
ATOM      8  H3  UNK     1      -0.392  38.301 230.084  1.00  0.00     0.186 HD
BRANCH   7   9
ATOM      9  N1  UNK     1      -2.069  39.537 230.144  1.00  0.00    -0.234 N 
ATOM     10  C1  UNK     1      -3.357  39.121 229.678  1.00  0.00     0.257 A 
ATOM     11  C5  UNK     1      -3.920  40.463 229.251  1.00  0.00     0.245 A 
ATOM     12  O2  UNK     1      -5.034  40.622 228.771  1.00  0.00    -0.271 OA
ATOM     13  N2  UNK     1      -2.980  41.438 229.493  1.00  0.00    -0.276 N 
ATOM     14  C6  UNK     1      -1.831  40.901 230.042  1.00  0.00     0.344 A 
ATOM     15  H4  UNK     1      -3.111  42.422 229.295  1.00  0.00     0.173 HD
ATOM     16  O3  UNK     1      -0.822  41.514 230.364  1.00  0.00    -0.245 OA
ENDBRANCH   7   9
ENDBRANCH   3   6
BRANCH   2  17
ATOM     17  C3  UNK     1       1.599  37.160 235.413  1.00  0.00    -0.002 A 
ATOM     18  C9  UNK     1       2.212  36.120 236.113  1.00  0.00     0.017 A 
ATOM     19  C13 UNK     1       2.921  36.390 237.283  1.00  0.00     0.037 A 
ATOM     20  C12 UNK     1       3.019  37.700 237.752  1.00  0.00     0.102 A 
ATOM     21  C14 UNK     1       2.406  38.740 237.052  1.00  0.00     0.037 A 
ATOM     22  C10 UNK     1       1.696  38.469 235.883  1.00  0.00     0.017 A 
BRANCH  20  23
ATOM     23  N4  UNK     1       3.741  37.976 238.944  1.00  0.00    -0.116 N 
ATOM     24  O4  UNK     1       4.143  37.017 239.647  1.00  0.00    -0.532 OA
ATOM     25  O5  UNK     1       3.960  39.171 239.260  1.00  0.00    -0.532 OA
ENDBRANCH  20  23
ENDBRANCH   2  17
TORSDOF 4
ENDMDL
MODEL 5
REMARK VINA RESULT:      -6.6      6.782      8.015
REMARK  4 active torsions:
REMARK  status: ('A' for Active; 'I' for Inactive)
REMARK    1  A    between atoms: N1_6  and  N3_8 
REMARK    2  A    between atoms: N4_10  and  C12_22 
REMARK    3  A    between atoms: C2_12  and  C3_13 
REMARK    4  A    between atoms: C4_14  and  C11_21 
ROOT
ATOM      1  O1  UNK     1      -0.063  37.789 233.378  1.00  0.00    -0.309 OA
ATOM      2  C2  UNK     1      -0.488  37.269 232.200  1.00  0.00     0.086 A 
ATOM      3  C4  UNK     1       0.685  36.824 233.975  1.00  0.00     0.093 A 
ATOM      4  C7  UNK     1      -0.027  35.989 232.033  1.00  0.00     0.041 A 
ATOM      5  C8  UNK     1       0.736  35.697 233.188  1.00  0.00     0.041 A 
ENDROOT
BRANCH   3   6
ATOM      6  C11 UNK     1       1.259  37.116 235.244  1.00  0.00     0.144 C 
ATOM      7  N3  UNK     1       2.209  38.003 235.413  1.00  0.00    -0.303 N 
ATOM      8  H3  UNK     1       2.600  38.544 234.641  1.00  0.00     0.186 HD
BRANCH   7   9
ATOM      9  N1  UNK     1       2.629  38.145 236.686  1.00  0.00    -0.234 N 
ATOM     10  C1  UNK     1       3.649  37.321 237.260  1.00  0.00     0.257 A 
ATOM     11  C5  UNK     1       3.701  37.913 238.656  1.00  0.00     0.245 A 
ATOM     12  O2  UNK     1       4.448  37.525 239.543  1.00  0.00    -0.271 OA
ATOM     13  N2  UNK     1       2.782  38.934 238.740  1.00  0.00    -0.276 N 
ATOM     14  C6  UNK     1       2.107  39.101 237.547  1.00  0.00     0.344 A 
ATOM     15  H4  UNK     1       2.619  39.491 239.571  1.00  0.00     0.173 HD
ATOM     16  O3  UNK     1       1.233  39.925 237.313  1.00  0.00    -0.245 OA
ENDBRANCH   7   9
ENDBRANCH   3   6
BRANCH   2  17
ATOM     17  C3  UNK     1      -1.307  38.148 231.402  1.00  0.00    -0.002 A 
ATOM     18  C9  UNK     1      -0.795  38.706 230.230  1.00  0.00     0.017 A 
ATOM     19  C13 UNK     1      -1.586  39.557 229.459  1.00  0.00     0.037 A 
ATOM     20  C12 UNK     1      -2.890  39.849 229.859  1.00  0.00     0.102 A 
ATOM     21  C14 UNK     1      -3.402  39.292 231.031  1.00  0.00     0.037 A 
ATOM     22  C10 UNK     1      -2.610  38.441 231.802  1.00  0.00     0.017 A 
BRANCH  20  23
ATOM     23  N4  UNK     1      -3.696  40.716 229.074  1.00  0.00    -0.116 N 
ATOM     24  O4  UNK     1      -4.932  40.509 229.014  1.00  0.00    -0.532 OA
ATOM     25  O5  UNK     1      -3.150  41.667 228.463  1.00  0.00    -0.532 OA
ENDBRANCH  20  23
ENDBRANCH   2  17
TORSDOF 4
ENDMDL
MODEL 6
REMARK VINA RESULT:      -6.6      2.037      2.420
REMARK  4 active torsions:
REMARK  status: ('A' for Active; 'I' for Inactive)
REMARK    1  A    between atoms: N1_6  and  N3_8 
REMARK    2  A    between atoms: N4_10  and  C12_22 
REMARK    3  A    between atoms: C2_12  and  C3_13 
REMARK    4  A    between atoms: C4_14  and  C11_21 
ROOT
ATOM      1  O1  UNK     1      -1.858  42.136 227.979  1.00  0.00    -0.309 OA
ATOM      2  C2  UNK     1      -3.118  41.637 227.912  1.00  0.00     0.086 A 
ATOM      3  C4  UNK     1      -1.330  41.683 229.146  1.00  0.00     0.093 A 
ATOM      4  C7  UNK     1      -3.404  40.875 229.014  1.00  0.00     0.041 A 
ATOM      5  C8  UNK     1      -2.242  40.904 229.819  1.00  0.00     0.041 A 
ENDROOT
BRANCH   3   6
ATOM      6  C11 UNK     1       0.003  42.067 229.466  1.00  0.00     0.144 C 
ATOM      7  N3  UNK     1       0.624  43.059 228.877  1.00  0.00    -0.303 N 
ATOM      8  H3  UNK     1       0.189  43.623 228.146  1.00  0.00     0.186 HD
BRANCH   7   9
ATOM      9  N1  UNK     1       1.882  43.276 229.311  1.00  0.00    -0.234 N 
ATOM     10  C1  UNK     1       2.180  44.113 230.433  1.00  0.00     0.257 A 
ATOM     11  C5  UNK     1       3.691  43.986 230.453  1.00  0.00     0.245 A 
ATOM     12  O2  UNK     1       4.420  44.543 231.262  1.00  0.00    -0.271 OA
ATOM     13  N2  UNK     1       4.082  43.158 229.425  1.00  0.00    -0.276 N 
ATOM     14  C6  UNK     1       2.994  42.705 228.705  1.00  0.00     0.344 A 
ATOM     15  H4  UNK     1       5.043  42.912 229.222  1.00  0.00     0.173 HD
ATOM     16  O3  UNK     1       3.021  41.957 227.737  1.00  0.00    -0.245 OA
ENDBRANCH   7   9
ENDBRANCH   3   6
BRANCH   2  17
ATOM     17  C3  UNK     1      -3.860  42.005 226.730  1.00  0.00    -0.002 A 
ATOM     18  C9  UNK     1      -4.358  41.014 225.884  1.00  0.00     0.017 A 
ATOM     19  C13 UNK     1      -5.074  41.369 224.741  1.00  0.00     0.037 A 
ATOM     20  C12 UNK     1      -5.293  42.714 224.445  1.00  0.00     0.102 A 
ATOM     21  C14 UNK     1      -4.795  43.705 225.292  1.00  0.00     0.037 A 
ATOM     22  C10 UNK     1      -4.078  43.350 226.434  1.00  0.00     0.017 A 
BRANCH  20  23
ATOM     23  N4  UNK     1      -6.023  43.076 223.282  1.00  0.00    -0.116 N 
ATOM     24  O4  UNK     1      -6.412  44.262 223.152  1.00  0.00    -0.532 OA
ATOM     25  O5  UNK     1      -6.257  42.200 222.413  1.00  0.00    -0.532 OA
ENDBRANCH  20  23
ENDBRANCH   2  17
TORSDOF 4
ENDMDL
MODEL 7
REMARK VINA RESULT:      -6.6      4.484      8.201
REMARK  4 active torsions:
REMARK  status: ('A' for Active; 'I' for Inactive)
REMARK    1  A    between atoms: N1_6  and  N3_8 
REMARK    2  A    between atoms: N4_10  and  C12_22 
REMARK    3  A    between atoms: C2_12  and  C3_13 
REMARK    4  A    between atoms: C4_14  and  C11_21 
ROOT
ATOM      1  O1  UNK     1      -2.631  40.512 230.167  1.00  0.00    -0.309 OA
ATOM      2  C2  UNK     1      -2.703  41.184 228.991  1.00  0.00     0.086 A 
ATOM      3  C4  UNK     1      -3.669  39.635 230.170  1.00  0.00     0.093 A 
ATOM      4  C7  UNK     1      -3.768  40.753 228.243  1.00  0.00     0.041 A 
ATOM      5  C8  UNK     1      -4.398  39.745 229.009  1.00  0.00     0.041 A 
ENDROOT
BRANCH   3   6
ATOM      6  C11 UNK     1      -3.826  38.794 231.308  1.00  0.00     0.144 C 
ATOM      7  N3  UNK     1      -3.288  39.059 232.473  1.00  0.00    -0.303 N 
ATOM      8  H3  UNK     1      -2.719  39.889 232.641  1.00  0.00     0.186 HD
BRANCH   7   9
ATOM      9  N1  UNK     1      -3.546  38.148 233.434  1.00  0.00    -0.234 N 
ATOM     10  C1  UNK     1      -4.872  37.719 233.757  1.00  0.00     0.257 A 
ATOM     11  C5  UNK     1      -4.559  36.730 234.863  1.00  0.00     0.245 A 
ATOM     12  O2  UNK     1      -5.401  36.086 235.473  1.00  0.00    -0.271 OA
ATOM     13  N2  UNK     1      -3.196  36.691 235.052  1.00  0.00    -0.276 N 
ATOM     14  C6  UNK     1      -2.546  37.551 234.190  1.00  0.00     0.344 A 
ATOM     15  H4  UNK     1      -2.729  36.108 235.737  1.00  0.00     0.173 HD
ATOM     16  O3  UNK     1      -1.338  37.737 234.119  1.00  0.00    -0.245 OA
ENDBRANCH   7   9
ENDBRANCH   3   6
BRANCH   2  17
ATOM     17  C3  UNK     1      -1.675  42.175 228.788  1.00  0.00    -0.002 A 
ATOM     18  C9  UNK     1      -0.814  42.511 229.834  1.00  0.00     0.017 A 
ATOM     19  C13 UNK     1       0.179  43.470 229.638  1.00  0.00     0.037 A 
ATOM     20  C12 UNK     1       0.313  44.093 228.397  1.00  0.00     0.102 A 
ATOM     21  C14 UNK     1      -0.548  43.757 227.351  1.00  0.00     0.037 A 
ATOM     22  C10 UNK     1      -1.542  42.799 227.547  1.00  0.00     0.017 A 
BRANCH  20  23
ATOM     23  N4  UNK     1       1.325  45.070 228.198  1.00  0.00    -0.116 N 
ATOM     24  O4  UNK     1       1.165  45.937 227.306  1.00  0.00    -0.532 OA
ATOM     25  O5  UNK     1       2.350  45.039 228.921  1.00  0.00    -0.532 OA
ENDBRANCH  20  23
ENDBRANCH   2  17
TORSDOF 4
ENDMDL
MODEL 8
REMARK VINA RESULT:      -6.6      4.508      6.965
REMARK  4 active torsions:
REMARK  status: ('A' for Active; 'I' for Inactive)
REMARK    1  A    between atoms: N1_6  and  N3_8 
REMARK    2  A    between atoms: N4_10  and  C12_22 
REMARK    3  A    between atoms: C2_12  and  C3_13 
REMARK    4  A    between atoms: C4_14  and  C11_21 
ROOT
ATOM      1  O1  UNK     1      -1.640  40.290 231.174  1.00  0.00    -0.309 OA
ATOM      2  C2  UNK     1      -2.528  39.266 231.221  1.00  0.00     0.086 A 
ATOM      3  C4  UNK     1      -1.756  40.839 229.936  1.00  0.00     0.093 A 
ATOM      4  C7  UNK     1      -3.209  39.150 230.037  1.00  0.00     0.041 A 
ATOM      5  C8  UNK     1      -2.707  40.172 229.198  1.00  0.00     0.041 A 
ENDROOT
BRANCH   3   6
ATOM      6  C11 UNK     1      -0.922  41.949 229.619  1.00  0.00     0.144 C 
ATOM      7  N3  UNK     1      -0.090  41.952 228.607  1.00  0.00    -0.303 N 
ATOM      8  H3  UNK     1       0.016  41.156 227.979  1.00  0.00     0.186 HD
BRANCH   7   9
ATOM      9  N1  UNK     1       0.618  43.092 228.463  1.00  0.00    -0.234 N 
ATOM     10  C1  UNK     1       0.014  44.388 228.515  1.00  0.00     0.257 A 
ATOM     11  C5  UNK     1       1.243  45.251 228.298  1.00  0.00     0.245 A 
ATOM     12  O2  UNK     1       1.229  46.474 228.261  1.00  0.00    -0.271 OA
ATOM     13  N2  UNK     1       2.341  44.434 228.155  1.00  0.00    -0.276 N 
ATOM     14  C6  UNK     1       1.990  43.102 228.251  1.00  0.00     0.344 A 
ATOM     15  H4  UNK     1       3.285  44.766 227.998  1.00  0.00     0.173 HD
ATOM     16  O3  UNK     1       2.743  42.142 228.163  1.00  0.00    -0.245 OA
ENDBRANCH   7   9
ENDBRANCH   3   6
BRANCH   2  17
ATOM     17  C3  UNK     1      -2.564  38.544 232.469  1.00  0.00    -0.002 A 
ATOM     18  C9  UNK     1      -3.781  38.086 232.976  1.00  0.00     0.017 A 
ATOM     19  C13 UNK     1      -3.815  37.389 234.183  1.00  0.00     0.037 A 
ATOM     20  C12 UNK     1      -2.633  37.148 234.883  1.00  0.00     0.102 A 
ATOM     21  C14 UNK     1      -1.416  37.605 234.377  1.00  0.00     0.037 A 
ATOM     22  C10 UNK     1      -1.382  38.304 233.170  1.00  0.00     0.017 A 
BRANCH  20  23
ATOM     23  N4  UNK     1      -2.668  36.438 236.113  1.00  0.00    -0.116 N 
ATOM     24  O4  UNK     1      -3.779  36.091 236.583  1.00  0.00    -0.532 OA
ATOM     25  O5  UNK     1      -1.588  36.175 236.694  1.00  0.00    -0.532 OA
ENDBRANCH  20  23
ENDBRANCH   2  17
TORSDOF 4
ENDMDL
MODEL 9
REMARK VINA RESULT:      -6.5      1.705      2.571
REMARK  4 active torsions:
REMARK  status: ('A' for Active; 'I' for Inactive)
REMARK    1  A    between atoms: N1_6  and  N3_8 
REMARK    2  A    between atoms: N4_10  and  C12_22 
REMARK    3  A    between atoms: C2_12  and  C3_13 
REMARK    4  A    between atoms: C4_14  and  C11_21 
ROOT
ATOM      1  O1  UNK     1      -2.683  41.107 228.896  1.00  0.00    -0.309 OA
ATOM      2  C2  UNK     1      -3.210  39.901 229.224  1.00  0.00     0.086 A 
ATOM      3  C4  UNK     1      -1.570  41.260 229.661  1.00  0.00     0.093 A 
ATOM      4  C7  UNK     1      -2.454  39.279 230.184  1.00  0.00     0.041 A 
ATOM      5  C8  UNK     1      -1.387  40.162 230.470  1.00  0.00     0.041 A 
ENDROOT
BRANCH   3   6
ATOM      6  C11 UNK     1      -0.818  42.459 229.511  1.00  0.00     0.144 C 
ATOM      7  N3  UNK     1       0.459  42.470 229.220  1.00  0.00    -0.303 N 
ATOM      8  H3  UNK     1       1.000  41.616 229.081  1.00  0.00     0.186 HD
BRANCH   7   9
ATOM      9  N1  UNK     1       1.004  43.700 229.118  1.00  0.00    -0.234 N 
ATOM     10  C1  UNK     1       0.254  44.846 228.705  1.00  0.00     0.257 A 
ATOM     11  C5  UNK     1       1.340  45.902 228.775  1.00  0.00     0.245 A 
ATOM     12  O2  UNK     1       1.174  47.083 228.502  1.00  0.00    -0.271 OA
ATOM     13  N2  UNK     1       2.511  45.309 229.187  1.00  0.00    -0.276 N 
ATOM     14  C6  UNK     1       2.338  43.956 229.406  1.00  0.00     0.344 A 
ATOM     15  H4  UNK     1       3.389  45.799 229.312  1.00  0.00     0.173 HD
ATOM     16  O3  UNK     1       3.192  43.162 229.776  1.00  0.00    -0.245 OA
ENDBRANCH   7   9
ENDBRANCH   3   6
BRANCH   2  17
ATOM     17  C3  UNK     1      -4.413  39.545 228.513  1.00  0.00    -0.002 A 
ATOM     18  C9  UNK     1      -4.751  38.201 228.344  1.00  0.00     0.017 A 
ATOM     19  C13 UNK     1      -5.913  37.856 227.656  1.00  0.00     0.037 A 
ATOM     20  C12 UNK     1      -6.739  38.854 227.137  1.00  0.00     0.102 A 
ATOM     21  C14 UNK     1      -6.401  40.197 227.306  1.00  0.00     0.037 A 
ATOM     22  C10 UNK     1      -5.238  40.542 227.993  1.00  0.00     0.017 A 
BRANCH  20  23
ATOM     23  N4  UNK     1      -7.923  38.502 226.436  1.00  0.00    -0.116 N 
ATOM     24  O4  UNK     1      -8.780  39.390 226.206  1.00  0.00    -0.532 OA
ATOM     25  O5  UNK     1      -8.080  37.314 226.064  1.00  0.00    -0.532 OA
ENDBRANCH  20  23
ENDBRANCH   2  17
TORSDOF 4
ENDMDL
