MODEL 1
REMARK VINA RESULT:      -5.8      0.000      0.000
REMARK  9 active torsions:
REMARK  status: ('A' for Active; 'I' for Inactive)
REMARK    1  A    between atoms: O1_5  and  C5_6 
REMARK    2  A    between atoms: C5_6  and  C6_7 
REMARK    3  A    between atoms: C6_7  and  O2_8 
REMARK    4  A    between atoms: O2_8  and  C7_9 
REMARK    5  A    between atoms: C7_9  and  C8_11 
REMARK    6  A    between atoms: C10_14  and  C18_25 
REMARK    7  A    between atoms: C14_18  and  N2_22 
REMARK    8  A    between atoms: C18_25  and  O7_27 
REMARK    9  A    between atoms: O7_27  and  C19_28 
ROOT
ATOM      1  C12 UNK     1       3.367  43.168 229.108  1.00  0.00     0.002 A 
ATOM      2  C13 UNK     1       2.881  44.399 229.419  1.00  0.00     0.036 A 
ATOM      3  C14 UNK     1       1.705  44.930 228.770  1.00  0.00     0.102 A 
ATOM      4  C15 UNK     1       1.066  44.121 227.839  1.00  0.00     0.036 A 
ATOM      5  C16 UNK     1       1.583  42.845 227.539  1.00  0.00     0.002 A 
ATOM      6  C17 UNK     1       2.750  42.411 228.166  1.00  0.00     0.000 A 
ENDROOT
BRANCH   3   7
ATOM      7  N2  UNK     1       1.097  46.291 229.047  1.00  0.00    -0.116 N 
ATOM      8  O4  UNK     1       0.234  46.402 230.202  1.00  0.00    -0.532 OA
ATOM      9  O5  UNK     1       1.271  47.326 228.368  1.00  0.00    -0.532 OA
ENDBRANCH   3   7
TORSDOF 9
ENDMDL
MODEL 2
REMARK VINA RESULT:      -5.8      0.130      1.607
REMARK  9 active torsions:
REMARK  status: ('A' for Active; 'I' for Inactive)
REMARK    1  A    between atoms: O1_5  and  C5_6 
REMARK    2  A    between atoms: C5_6  and  C6_7 
REMARK    3  A    between atoms: C6_7  and  O2_8 
REMARK    4  A    between atoms: O2_8  and  C7_9 
REMARK    5  A    between atoms: C7_9  and  C8_11 
REMARK    6  A    between atoms: C10_14  and  C18_25 
REMARK    7  A    between atoms: C14_18  and  N2_22 
REMARK    8  A    between atoms: C18_25  and  O7_27 
REMARK    9  A    between atoms: O7_27  and  C19_28 
ROOT
ATOM      1  C12 UNK     1       1.713  42.798 227.609  1.00  0.00     0.002 A 
ATOM      2  C13 UNK     1       1.132  44.009 227.817  1.00  0.00     0.036 A 
ATOM      3  C14 UNK     1       1.678  44.954 228.764  1.00  0.00     0.102 A 
ATOM      4  C15 UNK     1       2.842  44.593 229.430  1.00  0.00     0.036 A 
ATOM      5  C16 UNK     1       3.432  43.336 229.192  1.00  0.00     0.002 A 
ATOM      6  C17 UNK     1       2.827  42.450 228.301  1.00  0.00     0.000 A 
ENDROOT
BRANCH   3   7
ATOM      7  N2  UNK     1       1.093  46.321 229.065  1.00  0.00    -0.116 N 
ATOM      8  O4  UNK     1       0.245  46.429 230.230  1.00  0.00    -0.532 OA
ATOM      9  O5  UNK     1       1.274  47.362 228.397  1.00  0.00    -0.532 OA
ENDBRANCH   3   7
TORSDOF 9
ENDMDL
MODEL 3
REMARK VINA RESULT:      -5.3      1.673      2.624
REMARK  9 active torsions:
REMARK  status: ('A' for Active; 'I' for Inactive)
REMARK    1  A    between atoms: O1_5  and  C5_6 
REMARK    2  A    between atoms: C5_6  and  C6_7 
REMARK    3  A    between atoms: C6_7  and  O2_8 
REMARK    4  A    between atoms: O2_8  and  C7_9 
REMARK    5  A    between atoms: C7_9  and  C8_11 
REMARK    6  A    between atoms: C10_14  and  C18_25 
REMARK    7  A    between atoms: C14_18  and  N2_22 
REMARK    8  A    between atoms: C18_25  and  O7_27 
REMARK    9  A    between atoms: O7_27  and  C19_28 
ROOT
ATOM      1  C12 UNK     1       3.504  42.689 228.552  1.00  0.00     0.002 A 
ATOM      2  C13 UNK     1       2.216  43.095 228.714  1.00  0.00     0.036 A 
ATOM      3  C14 UNK     1       1.816  43.898 229.846  1.00  0.00     0.102 A 
ATOM      4  C15 UNK     1       2.804  44.272 230.747  1.00  0.00     0.036 A 
ATOM      5  C16 UNK     1       4.134  43.848 230.555  1.00  0.00     0.002 A 
ATOM      6  C17 UNK     1       4.445  43.033 229.466  1.00  0.00     0.000 A 
ENDROOT
BRANCH   3   7
ATOM      7  N2  UNK     1       0.405  44.388 230.110  1.00  0.00    -0.116 N 
ATOM      8  O4  UNK     1      -0.648  43.398 230.087  1.00  0.00    -0.532 OA
ATOM      9  O5  UNK     1       0.068  45.569 230.343  1.00  0.00    -0.532 OA
ENDBRANCH   3   7
TORSDOF 9
ENDMDL
MODEL 4
REMARK VINA RESULT:      -4.9      3.037      3.359
REMARK  9 active torsions:
REMARK  status: ('A' for Active; 'I' for Inactive)
REMARK    1  A    between atoms: O1_5  and  C5_6 
REMARK    2  A    between atoms: C5_6  and  C6_7 
REMARK    3  A    between atoms: C6_7  and  O2_8 
REMARK    4  A    between atoms: O2_8  and  C7_9 
REMARK    5  A    between atoms: C7_9  and  C8_11 
REMARK    6  A    between atoms: C10_14  and  C18_25 
REMARK    7  A    between atoms: C14_18  and  N2_22 
REMARK    8  A    between atoms: C18_25  and  O7_27 
REMARK    9  A    between atoms: O7_27  and  C19_28 
ROOT
ATOM      1  C12 UNK     1       0.320  43.821 229.604  1.00  0.00     0.002 A 
ATOM      2  C13 UNK     1       1.545  44.011 230.163  1.00  0.00     0.036 A 
ATOM      3  C14 UNK     1       2.739  43.463 229.563  1.00  0.00     0.102 A 
ATOM      4  C15 UNK     1       2.596  42.763 228.372  1.00  0.00     0.036 A 
ATOM      5  C16 UNK     1       1.317  42.587 227.806  1.00  0.00     0.002 A 
ATOM      6  C17 UNK     1       0.198  43.101 228.462  1.00  0.00     0.000 A 
ENDROOT
BRANCH   3   7
ATOM      7  N2  UNK     1       4.142  43.616 230.120  1.00  0.00    -0.116 N 
ATOM      8  O4  UNK     1       4.272  44.273 231.401  1.00  0.00    -0.532 OA
ATOM      9  O5  UNK     1       5.197  43.232 229.571  1.00  0.00    -0.532 OA
ENDBRANCH   3   7
TORSDOF 9
ENDMDL
MODEL 5
REMARK VINA RESULT:      -4.9      2.709      3.136
REMARK  9 active torsions:
REMARK  status: ('A' for Active; 'I' for Inactive)
REMARK    1  A    between atoms: O1_5  and  C5_6 
REMARK    2  A    between atoms: C5_6  and  C6_7 
REMARK    3  A    between atoms: C6_7  and  O2_8 
REMARK    4  A    between atoms: O2_8  and  C7_9 
REMARK    5  A    between atoms: C7_9  and  C8_11 
REMARK    6  A    between atoms: C10_14  and  C18_25 
REMARK    7  A    between atoms: C14_18  and  N2_22 
REMARK    8  A    between atoms: C18_25  and  O7_27 
REMARK    9  A    between atoms: O7_27  and  C19_28 
ROOT
ATOM      1  C12 UNK     1       3.242  42.646 228.401  1.00  0.00     0.002 A 
ATOM      2  C13 UNK     1       1.911  42.443 228.211  1.00  0.00     0.036 A 
ATOM      3  C14 UNK     1       0.928  43.022 229.097  1.00  0.00     0.102 A 
ATOM      4  C15 UNK     1       1.391  43.824 230.132  1.00  0.00     0.036 A 
ATOM      5  C16 UNK     1       2.775  44.026 230.304  1.00  0.00     0.002 A 
ATOM      6  C17 UNK     1       3.674  43.399 229.442  1.00  0.00     0.000 A 
ENDROOT
BRANCH   3   7
ATOM      7  N2  UNK     1      -0.573  42.844 228.967  1.00  0.00    -0.116 N 
ATOM      8  O4  UNK     1      -1.302  42.516 230.172  1.00  0.00    -0.532 OA
ATOM      9  O5  UNK     1      -1.238  42.951 227.914  1.00  0.00    -0.532 OA
ENDBRANCH   3   7
TORSDOF 9
ENDMDL
MODEL 6
REMARK VINA RESULT:      -4.8      2.945      3.181
REMARK  9 active torsions:
REMARK  status: ('A' for Active; 'I' for Inactive)
REMARK    1  A    between atoms: O1_5  and  C5_6 
REMARK    2  A    between atoms: C5_6  and  C6_7 
REMARK    3  A    between atoms: C6_7  and  O2_8 
REMARK    4  A    between atoms: O2_8  and  C7_9 
REMARK    5  A    between atoms: C7_9  and  C8_11 
REMARK    6  A    between atoms: C10_14  and  C18_25 
REMARK    7  A    between atoms: C14_18  and  N2_22 
REMARK    8  A    between atoms: C18_25  and  O7_27 
REMARK    9  A    between atoms: O7_27  and  C19_28 
ROOT
ATOM      1  C12 UNK     1       2.656  44.119 230.036  1.00  0.00     0.002 A 
ATOM      2  C13 UNK     1       1.337  43.797 230.103  1.00  0.00     0.036 A 
ATOM      3  C14 UNK     1       0.743  42.859 229.179  1.00  0.00     0.102 A 
ATOM      4  C15 UNK     1       1.579  42.269 228.239  1.00  0.00     0.036 A 
ATOM      5  C16 UNK     1       2.945  42.611 228.194  1.00  0.00     0.002 A 
ATOM      6  C17 UNK     1       3.445  43.561 229.085  1.00  0.00     0.000 A 
ENDROOT
BRANCH   3   7
ATOM      7  N2  UNK     1      -0.716  42.448 229.174  1.00  0.00    -0.116 N 
ATOM      8  O4  UNK     1      -1.229  41.832 230.378  1.00  0.00    -0.532 OA
ATOM      9  O5  UNK     1      -1.517  42.588 228.225  1.00  0.00    -0.532 OA
ENDBRANCH   3   7
TORSDOF 9
ENDMDL
MODEL 7
REMARK VINA RESULT:      -4.7      3.063      3.892
REMARK  9 active torsions:
REMARK  status: ('A' for Active; 'I' for Inactive)
REMARK    1  A    between atoms: O1_5  and  C5_6 
REMARK    2  A    between atoms: C5_6  and  C6_7 
REMARK    3  A    between atoms: C6_7  and  O2_8 
REMARK    4  A    between atoms: O2_8  and  C7_9 
REMARK    5  A    between atoms: C7_9  and  C8_11 
REMARK    6  A    between atoms: C10_14  and  C18_25 
REMARK    7  A    between atoms: C14_18  and  N2_22 
REMARK    8  A    between atoms: C18_25  and  O7_27 
REMARK    9  A    between atoms: O7_27  and  C19_28 
ROOT
ATOM      1  C12 UNK     1      -2.283  41.968 228.912  1.00  0.00     0.002 A 
ATOM      2  C13 UNK     1      -1.241  42.366 229.689  1.00  0.00     0.036 A 
ATOM      3  C14 UNK     1      -0.205  43.230 229.174  1.00  0.00     0.102 A 
ATOM      4  C15 UNK     1      -0.330  43.671 227.862  1.00  0.00     0.036 A 
ATOM      5  C16 UNK     1      -1.424  43.253 227.078  1.00  0.00     0.002 A 
ATOM      6  C17 UNK     1      -2.365  42.378 227.621  1.00  0.00     0.000 A 
ENDROOT
BRANCH   3   7
ATOM      7  N2  UNK     1       0.995  43.717 229.963  1.00  0.00    -0.116 N 
ATOM      8  O4  UNK     1       2.297  43.268 229.522  1.00  0.00    -0.532 OA
ATOM      9  O5  UNK     1       0.964  44.467 230.962  1.00  0.00    -0.532 OA
ENDBRANCH   3   7
TORSDOF 9
ENDMDL
MODEL 8
REMARK VINA RESULT:      -4.7      3.078      3.908
REMARK  9 active torsions:
REMARK  status: ('A' for Active; 'I' for Inactive)
REMARK    1  A    between atoms: O1_5  and  C5_6 
REMARK    2  A    between atoms: C5_6  and  C6_7 
REMARK    3  A    between atoms: C6_7  and  O2_8 
REMARK    4  A    between atoms: O2_8  and  C7_9 
REMARK    5  A    between atoms: C7_9  and  C8_11 
REMARK    6  A    between atoms: C10_14  and  C18_25 
REMARK    7  A    between atoms: C14_18  and  N2_22 
REMARK    8  A    between atoms: C18_25  and  O7_27 
REMARK    9  A    between atoms: O7_27  and  C19_28 
ROOT
ATOM      1  C12 UNK     1      -1.533  43.064 227.032  1.00  0.00     0.002 A 
ATOM      2  C13 UNK     1      -0.411  43.489 227.671  1.00  0.00     0.036 A 
ATOM      3  C14 UNK     1      -0.183  43.195 229.067  1.00  0.00     0.102 A 
ATOM      4  C15 UNK     1      -1.138  42.430 229.725  1.00  0.00     0.036 A 
ATOM      5  C16 UNK     1      -2.289  41.994 229.040  1.00  0.00     0.002 A 
ATOM      6  C17 UNK     1      -2.472  42.353 227.704  1.00  0.00     0.000 A 
ENDROOT
BRANCH   3   7
ATOM      7  N2  UNK     1       1.032  43.632 229.862  1.00  0.00    -0.116 N 
ATOM      8  O4  UNK     1       0.806  44.557 230.950  1.00  0.00    -0.532 OA
ATOM      9  O5  UNK     1       2.212  43.271 229.661  1.00  0.00    -0.532 OA
ENDBRANCH   3   7
TORSDOF 9
ENDMDL
MODEL 9
REMARK VINA RESULT:      -4.5      3.034      3.412
REMARK  9 active torsions:
REMARK  status: ('A' for Active; 'I' for Inactive)
REMARK    1  A    between atoms: O1_5  and  C5_6 
REMARK    2  A    between atoms: C5_6  and  C6_7 
REMARK    3  A    between atoms: C6_7  and  O2_8 
REMARK    4  A    between atoms: O2_8  and  C7_9 
REMARK    5  A    between atoms: C7_9  and  C8_11 
REMARK    6  A    between atoms: C10_14  and  C18_25 
REMARK    7  A    between atoms: C14_18  and  N2_22 
REMARK    8  A    between atoms: C18_25  and  O7_27 
REMARK    9  A    between atoms: O7_27  and  C19_28 
ROOT
ATOM      1  C12 UNK     1       1.750  44.844 228.668  1.00  0.00     0.002 A 
ATOM      2  C13 UNK     1       0.496  44.609 228.197  1.00  0.00     0.036 A 
ATOM      3  C14 UNK     1       0.121  43.319 227.665  1.00  0.00     0.102 A 
ATOM      4  C15 UNK     1       1.081  42.315 227.683  1.00  0.00     0.036 A 
ATOM      5  C16 UNK     1       2.371  42.580 228.184  1.00  0.00     0.002 A 
ATOM      6  C17 UNK     1       2.683  43.861 228.639  1.00  0.00     0.000 A 
ENDROOT
BRANCH   3   7
ATOM      7  N2  UNK     1      -1.248  42.969 227.114  1.00  0.00    -0.116 N 
ATOM      8  O4  UNK     1      -2.198  42.390 228.036  1.00  0.00    -0.532 OA
ATOM      9  O5  UNK     1      -1.629  43.132 225.935  1.00  0.00    -0.532 OA
ENDBRANCH   3   7
TORSDOF 9
ENDMDL
