MODEL 1
REMARK VINA RESULT:      -7.9      0.000      0.000
REMARK  5 active torsions:
REMARK  status: ('A' for Active; 'I' for Inactive)
REMARK    1  A    between atoms: O1_2  and  C5_11 
REMARK    2  A    between atoms: O2_3  and  C9_15 
REMARK    3  A    between atoms: O4_5  and  C20_26 
REMARK    4  A    between atoms: C5_11  and  C15_21 
REMARK    5  A    between atoms: C15_21  and  C20_26 
ROOT
ATOM      1  F1  UNK     1       1.712  36.981 232.820  1.00  0.00    -0.238 F 
ATOM      2  O5  UNK     1       0.160  36.475 228.223  1.00  0.00    -0.289 OA
ATOM      3  C1  UNK     1       1.519  37.054 236.328  1.00  0.00     0.001 C 
ATOM      4  C2  UNK     1       1.728  35.830 235.408  1.00  0.00     0.005 C 
ATOM      5  C3  UNK     1       0.592  35.630 234.393  1.00  0.00     0.035 C 
ATOM      6  C4  UNK     1       0.494  36.898 233.477  1.00  0.00     0.147 C 
ATOM      7  C5  UNK     1       2.773  36.920 237.248  1.00  0.00     0.131 C 
ATOM      8  C6  UNK     1       2.040  34.710 236.394  1.00  0.00     0.013 C 
ATOM      9  C7  UNK     1       1.475  38.305 235.424  1.00  0.00     0.048 C 
ATOM     10  C8  UNK     1       2.988  35.382 237.421  1.00  0.00     0.025 C 
ATOM     11  C9  UNK     1       0.409  38.215 234.307  1.00  0.00     0.160 C 
ATOM     12  C10 UNK     1      -0.589  36.726 232.339  1.00  0.00     0.036 A 
ATOM     13  C11 UNK     1       0.839  34.359 233.558  1.00  0.00     0.013 C 
ATOM     14  C12 UNK     1       0.226  36.964 237.185  1.00  0.00     0.019 C 
ATOM     15  C13 UNK     1      -0.199  34.180 232.457  1.00  0.00     0.036 C 
ATOM     16  C14 UNK     1      -0.276  35.419 231.602  1.00  0.00    -0.061 A 
ATOM     17  C16 UNK     1       2.765  34.811 238.818  1.00  0.00     0.013 C 
ATOM     18  C17 UNK     1      -2.042  36.642 232.860  1.00  0.00     0.028 C 
ATOM     19  C18 UNK     1      -0.548  37.915 231.391  1.00  0.00    -0.006 A 
ATOM     20  C19 UNK     1      -0.034  35.345 230.284  1.00  0.00     0.058 A 
ATOM     21  C21 UNK     1      -0.306  37.849 230.077  1.00  0.00     0.052 A 
ATOM     22  C22 UNK     1      -0.046  36.550 229.430  1.00  0.00     0.172 A 
ENDROOT
BRANCH   7  23
ATOM     23  O1  UNK     1       3.924  37.457 236.584  1.00  0.00    -0.381 OA
ATOM     24  H22 UNK     1       4.698  36.909 236.802  1.00  0.00     0.211 HD
ENDBRANCH   7  23
BRANCH   7  25
ATOM     25  C15 UNK     1       2.722  37.746 238.498  1.00  0.00     0.185 C 
ATOM     26  O3  UNK     1       2.262  37.294 239.546  1.00  0.00    -0.292 OA
BRANCH  25  27
ATOM     27  C20 UNK     1       3.265  39.156 238.393  1.00  0.00     0.245 C 
BRANCH  27  28
ATOM     28  O4  UNK     1       4.402  39.314 239.216  1.00  0.00    -0.393 OA
ATOM     29  H29 UNK     1       4.096  39.665 240.070  1.00  0.00     0.209 HD
ENDBRANCH  27  28
ENDBRANCH  25  27
ENDBRANCH   7  25
BRANCH  11  30
ATOM     30  O2  UNK     1      -0.884  38.403 234.860  1.00  0.00    -0.392 OA
ATOM     31  H24 UNK     1      -1.340  39.072 234.323  1.00  0.00     0.210 HD
ENDBRANCH  11  30
TORSDOF 5
ENDMDL
MODEL 2
REMARK VINA RESULT:      -7.1      1.946      6.904
REMARK  5 active torsions:
REMARK  status: ('A' for Active; 'I' for Inactive)
REMARK    1  A    between atoms: O1_2  and  C5_11 
REMARK    2  A    between atoms: O2_3  and  C9_15 
REMARK    3  A    between atoms: O4_5  and  C20_26 
REMARK    4  A    between atoms: C5_11  and  C15_21 
REMARK    5  A    between atoms: C15_21  and  C20_26 
ROOT
ATOM      1  F1  UNK     1       0.390  35.772 237.142  1.00  0.00    -0.238 F 
ATOM      2  O5  UNK     1       2.613  34.649 241.336  1.00  0.00    -0.289 OA
ATOM      3  C1  UNK     1       0.089  36.777 233.789  1.00  0.00     0.001 C 
ATOM      4  C2  UNK     1       0.369  35.361 234.340  1.00  0.00     0.005 C 
ATOM      5  C3  UNK     1       1.638  35.283 235.204  1.00  0.00     0.035 C 
ATOM      6  C4  UNK     1       1.482  36.245 236.431  1.00  0.00     0.147 C 
ATOM      7  C5  UNK     1      -1.180  36.488 232.929  1.00  0.00     0.131 C 
ATOM      8  C6  UNK     1       0.270  34.484 233.097  1.00  0.00     0.013 C 
ATOM      9  C7  UNK     1      -0.113  37.710 235.002  1.00  0.00     0.048 C 
ATOM     10  C8  UNK     1      -0.960  35.056 232.344  1.00  0.00     0.025 C 
ATOM     11  C9  UNK     1       1.069  37.685 235.998  1.00  0.00     0.160 C 
ATOM     12  C10 UNK     1       2.708  36.145 237.423  1.00  0.00     0.036 A 
ATOM     13  C11 UNK     1       1.884  33.833 235.662  1.00  0.00     0.013 C 
ATOM     14  C12 UNK     1       1.228  37.318 232.880  1.00  0.00     0.019 C 
ATOM     15  C13 UNK     1       3.064  33.722 236.619  1.00  0.00     0.036 C 
ATOM     16  C14 UNK     1       2.889  34.666 237.780  1.00  0.00    -0.061 A 
ATOM     17  C16 UNK     1      -0.766  34.954 230.835  1.00  0.00     0.013 C 
ATOM     18  C17 UNK     1       4.041  36.658 236.830  1.00  0.00     0.028 C 
ATOM     19  C18 UNK     1       2.448  36.984 238.665  1.00  0.00    -0.006 A 
ATOM     20  C19 UNK     1       2.855  34.192 239.036  1.00  0.00     0.058 A 
ATOM     21  C21 UNK     1       2.410  36.518 239.919  1.00  0.00     0.052 A 
ATOM     22  C22 UNK     1       2.627  35.085 240.190  1.00  0.00     0.172 A 
ENDROOT
BRANCH   7  23
ATOM     23  O1  UNK     1      -2.340  36.450 233.770  1.00  0.00    -0.381 OA
ATOM     24  H22 UNK     1      -2.358  37.251 234.320  1.00  0.00     0.211 HD
ENDBRANCH   7  23
BRANCH   7  25
ATOM     25  C15 UNK     1      -1.538  37.574 231.957  1.00  0.00     0.185 C 
ATOM     26  O3  UNK     1      -0.826  37.822 230.985  1.00  0.00    -0.292 OA
BRANCH  25  27
ATOM     27  C20 UNK     1      -2.814  38.336 232.243  1.00  0.00     0.245 C 
BRANCH  27  28
ATOM     28  O4  UNK     1      -2.577  39.373 233.173  1.00  0.00    -0.393 OA
ATOM     29  H29 UNK     1      -3.384  39.473 233.709  1.00  0.00     0.209 HD
ENDBRANCH  27  28
ENDBRANCH  25  27
ENDBRANCH   7  25
BRANCH  11  30
ATOM     30  O2  UNK     1       2.167  38.404 235.458  1.00  0.00    -0.392 OA
ATOM     31  H24 UNK     1       2.212  38.204 234.508  1.00  0.00     0.210 HD
ENDBRANCH  11  30
TORSDOF 5
ENDMDL
MODEL 3
REMARK VINA RESULT:      -6.8      2.118      7.252
REMARK  5 active torsions:
REMARK  status: ('A' for Active; 'I' for Inactive)
REMARK    1  A    between atoms: O1_2  and  C5_11 
REMARK    2  A    between atoms: O2_3  and  C9_15 
REMARK    3  A    between atoms: O4_5  and  C20_26 
REMARK    4  A    between atoms: C5_11  and  C15_21 
REMARK    5  A    between atoms: C15_21  and  C20_26 
ROOT
ATOM      1  F1  UNK     1       1.661  35.187 236.262  1.00  0.00    -0.238 F 
ATOM      2  O5  UNK     1       3.713  36.071 240.598  1.00  0.00    -0.289 OA
ATOM      3  C1  UNK     1      -0.522  35.636 233.545  1.00  0.00     0.001 C 
ATOM      4  C2  UNK     1       0.834  36.329 233.805  1.00  0.00     0.005 C 
ATOM      5  C3  UNK     1       0.879  37.102 235.133  1.00  0.00     0.035 C 
ATOM      6  C4  UNK     1       0.623  36.106 236.315  1.00  0.00     0.147 C 
ATOM      7  C5  UNK     1      -0.252  35.031 232.133  1.00  0.00     0.131 C 
ATOM      8  C6  UNK     1       1.089  37.084 232.505  1.00  0.00     0.013 C 
ATOM      9  C7  UNK     1      -0.744  34.620 234.686  1.00  0.00     0.048 C 
ATOM     10  C8  UNK     1       0.657  36.075 231.408  1.00  0.00     0.025 C 
ATOM     11  C9  UNK     1      -0.663  35.253 236.094  1.00  0.00     0.160 C 
ATOM     12  C10 UNK     1       0.754  36.810 237.723  1.00  0.00     0.036 A 
ATOM     13  C11 UNK     1       2.236  37.816 235.290  1.00  0.00     0.013 C 
ATOM     14  C12 UNK     1      -1.714  36.630 233.471  1.00  0.00     0.019 C 
ATOM     15  C13 UNK     1       2.375  38.500 236.644  1.00  0.00     0.036 C 
ATOM     16  C14 UNK     1       2.113  37.518 237.757  1.00  0.00    -0.061 A 
ATOM     17  C16 UNK     1       0.048  36.803 230.214  1.00  0.00     0.013 C 
ATOM     18  C17 UNK     1      -0.340  37.866 238.003  1.00  0.00     0.028 C 
ATOM     19  C18 UNK     1       0.642  35.780 238.837  1.00  0.00    -0.006 A 
ATOM     20  C19 UNK     1       3.058  37.275 238.679  1.00  0.00     0.058 A 
ATOM     21  C21 UNK     1       1.581  35.532 239.758  1.00  0.00     0.052 A 
ATOM     22  C22 UNK     1       2.852  36.278 239.749  1.00  0.00     0.172 A 
ENDROOT
BRANCH   7  23
ATOM     23  O1  UNK     1       0.490  33.811 232.259  1.00  0.00    -0.381 OA
ATOM     24  H22 UNK     1       0.801  33.724 233.176  1.00  0.00     0.211 HD
ENDBRANCH   7  23
BRANCH   7  25
ATOM     25  C15 UNK     1      -1.480  34.573 231.403  1.00  0.00     0.185 C 
ATOM     26  O3  UNK     1      -2.496  35.266 231.364  1.00  0.00    -0.292 OA
BRANCH  25  27
ATOM     27  C20 UNK     1      -1.392  33.222 230.725  1.00  0.00     0.245 C 
BRANCH  27  28
ATOM     28  O4  UNK     1      -0.510  33.274 229.624  1.00  0.00    -0.393 OA
ATOM     29  H29 UNK     1      -0.352  32.358 229.334  1.00  0.00     0.209 HD
ENDBRANCH  27  28
ENDBRANCH  25  27
ENDBRANCH   7  25
BRANCH  11  30
ATOM     30  O2  UNK     1      -1.839  36.004 236.352  1.00  0.00    -0.392 OA
ATOM     31  H24 UNK     1      -1.645  36.611 237.087  1.00  0.00     0.210 HD
ENDBRANCH  11  30
TORSDOF 5
ENDMDL
MODEL 4
REMARK VINA RESULT:      -6.6      1.880      7.244
REMARK  5 active torsions:
REMARK  status: ('A' for Active; 'I' for Inactive)
REMARK    1  A    between atoms: O1_2  and  C5_11 
REMARK    2  A    between atoms: O2_3  and  C9_15 
REMARK    3  A    between atoms: O4_5  and  C20_26 
REMARK    4  A    between atoms: C5_11  and  C15_21 
REMARK    5  A    between atoms: C15_21  and  C20_26 
ROOT
ATOM      1  F1  UNK     1       2.211  37.281 235.642  1.00  0.00    -0.238 F 
ATOM      2  O5  UNK     1       4.734  37.883 239.773  1.00  0.00    -0.289 OA
ATOM      3  C1  UNK     1      -0.540  36.514 233.594  1.00  0.00     0.001 C 
ATOM      4  C2  UNK     1      -0.215  37.852 234.295  1.00  0.00     0.005 C 
ATOM      5  C3  UNK     1      -0.097  37.727 235.823  1.00  0.00     0.035 C 
ATOM      6  C4  UNK     1       1.055  36.721 236.166  1.00  0.00     0.147 C 
ATOM      7  C5  UNK     1      -0.658  37.004 232.117  1.00  0.00     0.131 C 
ATOM      8  C6  UNK     1      -1.253  38.806 233.713  1.00  0.00     0.013 C 
ATOM      9  C7  UNK     1       0.623  35.545 233.894  1.00  0.00     0.048 C 
ATOM     10  C8  UNK     1      -1.289  38.430 232.209  1.00  0.00     0.025 C 
ATOM     11  C9  UNK     1       0.898  35.369 235.405  1.00  0.00     0.160 C 
ATOM     12  C10 UNK     1       1.306  36.615 237.723  1.00  0.00     0.036 A 
ATOM     13  C11 UNK     1       0.164  39.108 236.453  1.00  0.00     0.013 C 
ATOM     14  C12 UNK     1      -1.890  35.894 234.051  1.00  0.00     0.019 C 
ATOM     15  C13 UNK     1       0.407  39.021 237.955  1.00  0.00     0.036 C 
ATOM     16  C14 UNK     1       1.511  38.039 238.252  1.00  0.00    -0.061 A 
ATOM     17  C16 UNK     1      -2.696  38.596 231.644  1.00  0.00     0.013 C 
ATOM     18  C17 UNK     1       0.134  35.980 238.507  1.00  0.00     0.028 C 
ATOM     19  C18 UNK     1       2.521  35.744 238.001  1.00  0.00    -0.006 A 
ATOM     20  C19 UNK     1       2.613  38.440 238.906  1.00  0.00     0.058 A 
ATOM     21  C21 UNK     1       3.623  36.138 238.650  1.00  0.00     0.052 A 
ATOM     22  C22 UNK     1       3.736  37.515 239.161  1.00  0.00     0.172 A 
ENDROOT
BRANCH   7  23
ATOM     23  O1  UNK     1       0.648  37.133 231.540  1.00  0.00    -0.381 OA
ATOM     24  H22 UNK     1       1.082  36.263 231.544  1.00  0.00     0.211 HD
ENDBRANCH   7  23
BRANCH   7  25
ATOM     25  C15 UNK     1      -1.313  36.027 231.185  1.00  0.00     0.185 C 
ATOM     26  O3  UNK     1      -2.341  35.430 231.504  1.00  0.00    -0.292 OA
BRANCH  25  27
ATOM     27  C20 UNK     1      -0.639  35.825 229.844  1.00  0.00     0.245 C 
BRANCH  27  28
ATOM     28  O4  UNK     1      -0.778  36.976 229.038  1.00  0.00    -0.393 OA
ATOM     29  H29 UNK     1      -1.474  37.528 229.436  1.00  0.00     0.209 HD
ENDBRANCH  27  28
ENDBRANCH  25  27
ENDBRANCH   7  25
BRANCH  11  30
ATOM     30  O2  UNK     1      -0.109  34.556 235.987  1.00  0.00    -0.392 OA
ATOM     31  H24 UNK     1      -0.010  34.610 236.953  1.00  0.00     0.210 HD
ENDBRANCH  11  30
TORSDOF 5
ENDMDL
MODEL 5
REMARK VINA RESULT:      -6.6      2.332      7.114
REMARK  5 active torsions:
REMARK  status: ('A' for Active; 'I' for Inactive)
REMARK    1  A    between atoms: O1_2  and  C5_11 
REMARK    2  A    between atoms: O2_3  and  C9_15 
REMARK    3  A    between atoms: O4_5  and  C20_26 
REMARK    4  A    between atoms: C5_11  and  C15_21 
REMARK    5  A    between atoms: C15_21  and  C20_26 
ROOT
ATOM      1  F1  UNK     1       0.658  37.792 236.237  1.00  0.00    -0.238 F 
ATOM      2  O5  UNK     1       3.779  36.950 239.891  1.00  0.00    -0.289 OA
ATOM      3  C1  UNK     1      -1.542  37.042 233.603  1.00  0.00     0.001 C 
ATOM      4  C2  UNK     1      -1.849  37.100 235.116  1.00  0.00     0.005 C 
ATOM      5  C3  UNK     1      -0.991  36.133 235.949  1.00  0.00     0.035 C 
ATOM      6  C4  UNK     1       0.521  36.497 235.759  1.00  0.00     0.147 C 
ATOM      7  C5  UNK     1      -2.604  38.055 233.072  1.00  0.00     0.131 C 
ATOM      8  C6  UNK     1      -3.367  36.964 235.164  1.00  0.00     0.013 C 
ATOM      9  C7  UNK     1      -0.066  37.450 233.418  1.00  0.00     0.048 C 
ATOM     10  C8  UNK     1      -3.850  37.862 233.995  1.00  0.00     0.025 C 
ATOM     11  C9  UNK     1       0.915  36.596 234.254  1.00  0.00     0.160 C 
ATOM     12  C10 UNK     1       1.463  35.610 236.665  1.00  0.00     0.036 A 
ATOM     13  C11 UNK     1      -1.398  36.202 237.433  1.00  0.00     0.013 C 
ATOM     14  C12 UNK     1      -1.795  35.641 232.979  1.00  0.00     0.019 C 
ATOM     15  C13 UNK     1      -0.498  35.350 238.319  1.00  0.00     0.036 C 
ATOM     16  C14 UNK     1       0.949  35.717 238.105  1.00  0.00    -0.061 A 
ATOM     17  C16 UNK     1      -5.101  37.279 233.346  1.00  0.00     0.013 C 
ATOM     18  C17 UNK     1       1.483  34.113 236.276  1.00  0.00     0.028 C 
ATOM     19  C18 UNK     1       2.902  36.093 236.558  1.00  0.00    -0.006 A 
ATOM     20  C19 UNK     1       1.695  36.150 239.134  1.00  0.00     0.058 A 
ATOM     21  C21 UNK     1       3.650  36.527 237.578  1.00  0.00     0.052 A 
ATOM     22  C22 UNK     1       3.097  36.570 238.944  1.00  0.00     0.172 A 
ENDROOT
BRANCH   7  23
ATOM     23  O1  UNK     1      -2.127  39.396 233.245  1.00  0.00    -0.381 OA
ATOM     24  H22 UNK     1      -2.883  40.007 233.206  1.00  0.00     0.211 HD
ENDBRANCH   7  23
BRANCH   7  25
ATOM     25  C15 UNK     1      -2.837  37.998 231.591  1.00  0.00     0.185 C 
ATOM     26  O3  UNK     1      -3.152  36.947 231.033  1.00  0.00    -0.292 OA
BRANCH  25  27
ATOM     27  C20 UNK     1      -2.664  39.298 230.834  1.00  0.00     0.245 C 
BRANCH  27  28
ATOM     28  O4  UNK     1      -3.844  40.071 230.895  1.00  0.00    -0.393 OA
ATOM     29  H29 UNK     1      -3.838  40.545 231.745  1.00  0.00     0.209 HD
ENDBRANCH  27  28
ENDBRANCH  25  27
ENDBRANCH   7  25
BRANCH  11  30
ATOM     30  O2  UNK     1       1.056  35.312 233.665  1.00  0.00    -0.392 OA
ATOM     31  H24 UNK     1       0.323  35.194 233.038  1.00  0.00     0.210 HD
ENDBRANCH  11  30
TORSDOF 5
ENDMDL
MODEL 6
REMARK VINA RESULT:      -6.4      2.166      3.407
REMARK  5 active torsions:
REMARK  status: ('A' for Active; 'I' for Inactive)
REMARK    1  A    between atoms: O1_2  and  C5_11 
REMARK    2  A    between atoms: O2_3  and  C9_15 
REMARK    3  A    between atoms: O4_5  and  C20_26 
REMARK    4  A    between atoms: C5_11  and  C15_21 
REMARK    5  A    between atoms: C15_21  and  C20_26 
ROOT
ATOM      1  F1  UNK     1      -1.335  36.377 234.697  1.00  0.00    -0.238 F 
ATOM      2  O5  UNK     1      -3.948  36.592 230.583  1.00  0.00    -0.289 OA
ATOM      3  C1  UNK     1       1.310  35.469 236.825  1.00  0.00     0.001 C 
ATOM      4  C2  UNK     1       1.249  36.646 235.826  1.00  0.00     0.005 C 
ATOM      5  C3  UNK     1       0.994  36.202 234.376  1.00  0.00     0.035 C 
ATOM      6  C4  UNK     1      -0.380  35.450 234.305  1.00  0.00     0.147 C 
ATOM      7  C5  UNK     1       1.645  36.245 238.137  1.00  0.00     0.131 C 
ATOM      8  C6  UNK     1       2.518  37.431 236.142  1.00  0.00     0.013 C 
ATOM      9  C7  UNK     1      -0.063  34.765 236.788  1.00  0.00     0.048 C 
ATOM     10  C8  UNK     1       2.577  37.417 237.692  1.00  0.00     0.025 C 
ATOM     11  C9  UNK     1      -0.481  34.315 235.369  1.00  0.00     0.160 C 
ATOM     12  C10 UNK     1      -0.761  35.049 232.825  1.00  0.00     0.036 A 
ATOM     13  C11 UNK     1       1.011  37.420 233.433  1.00  0.00     0.013 C 
ATOM     14  C12 UNK     1       2.444  34.455 236.510  1.00  0.00     0.019 C 
ATOM     15  C13 UNK     1       0.645  37.048 232.002  1.00  0.00     0.036 C 
ATOM     16  C14 UNK     1      -0.673  36.318 231.970  1.00  0.00    -0.061 A 
ATOM     17  C16 UNK     1       4.022  37.367 238.177  1.00  0.00     0.013 C 
ATOM     18  C17 UNK     1       0.174  33.988 232.200  1.00  0.00     0.028 C 
ATOM     19  C18 UNK     1      -2.161  34.455 232.786  1.00  0.00    -0.006 A 
ATOM     20  C19 UNK     1      -1.699  36.809 231.256  1.00  0.00     0.058 A 
ATOM     21  C21 UNK     1      -3.187  34.940 232.079  1.00  0.00     0.052 A 
ATOM     22  C22 UNK     1      -3.019  36.148 231.250  1.00  0.00     0.172 A 
ENDROOT
BRANCH   7  23
ATOM     23  O1  UNK     1       0.449  36.814 238.686  1.00  0.00    -0.381 OA
ATOM     24  H22 UNK     1      -0.267  36.735 238.033  1.00  0.00     0.211 HD
ENDBRANCH   7  23
BRANCH   7  25
ATOM     25  C15 UNK     1       2.125  35.383 239.267  1.00  0.00     0.185 C 
ATOM     26  O3  UNK     1       3.290  35.436 239.661  1.00  0.00    -0.292 OA
BRANCH  25  27
ATOM     27  C20 UNK     1       1.100  34.457 239.886  1.00  0.00     0.245 C 
BRANCH  27  28
ATOM     28  O4  UNK     1       0.609  34.994 241.097  1.00  0.00    -0.393 OA
ATOM     29  H29 UNK     1       1.113  35.806 241.280  1.00  0.00     0.209 HD
ENDBRANCH  27  28
ENDBRANCH  25  27
ENDBRANCH   7  25
BRANCH  11  30
ATOM     30  O2  UNK     1       0.267  33.171 234.986  1.00  0.00    -0.392 OA
ATOM     31  H24 UNK     1       0.391  33.209 234.023  1.00  0.00     0.210 HD
ENDBRANCH  11  30
TORSDOF 5
ENDMDL
MODEL 7
REMARK VINA RESULT:      -6.4      1.682      7.297
REMARK  5 active torsions:
REMARK  status: ('A' for Active; 'I' for Inactive)
REMARK    1  A    between atoms: O1_2  and  C5_11 
REMARK    2  A    between atoms: O2_3  and  C9_15 
REMARK    3  A    between atoms: O4_5  and  C20_26 
REMARK    4  A    between atoms: C5_11  and  C15_21 
REMARK    5  A    between atoms: C15_21  and  C20_26 
ROOT
ATOM      1  F1  UNK     1       1.778  36.729 234.085  1.00  0.00    -0.238 F 
ATOM      2  O5  UNK     1       3.830  36.394 238.497  1.00  0.00    -0.289 OA
ATOM      3  C1  UNK     1      -0.701  36.391 231.618  1.00  0.00     0.001 C 
ATOM      4  C2  UNK     1      -0.529  37.529 232.649  1.00  0.00     0.005 C 
ATOM      5  C3  UNK     1      -0.558  37.040 234.106  1.00  0.00     0.035 C 
ATOM      6  C4  UNK     1       0.611  36.020 234.328  1.00  0.00     0.147 C 
ATOM      7  C5  UNK     1      -0.699  37.220 230.296  1.00  0.00     0.131 C 
ATOM      8  C6  UNK     1      -1.558  38.560 232.198  1.00  0.00     0.013 C 
ATOM      9  C7  UNK     1       0.481  35.417 231.807  1.00  0.00     0.048 C 
ATOM     10  C8  UNK     1      -1.420  38.560 230.653  1.00  0.00     0.025 C 
ATOM     11  C9  UNK     1       0.613  34.889 233.254  1.00  0.00     0.160 C 
ATOM     12  C10 UNK     1       0.708  35.547 235.832  1.00  0.00     0.036 A 
ATOM     13  C11 UNK     1      -0.446  38.234 235.073  1.00  0.00     0.013 C 
ATOM     14  C12 UNK     1      -2.051  35.633 231.760  1.00  0.00     0.019 C 
ATOM     15  C13 UNK     1      -0.351  37.793 236.528  1.00  0.00     0.036 C 
ATOM     16  C14 UNK     1       0.774  36.806 236.705  1.00  0.00    -0.061 A 
ATOM     17  C16 UNK     1      -2.770  38.810 229.989  1.00  0.00     0.013 C 
ATOM     18  C17 UNK     1      -0.496  34.702 236.306  1.00  0.00     0.028 C 
ATOM     19  C18 UNK     1       1.940  34.676 236.030  1.00  0.00    -0.006 A 
ATOM     20  C19 UNK     1       1.779  37.073 237.555  1.00  0.00     0.058 A 
ATOM     21  C21 UNK     1       2.944  34.937 236.873  1.00  0.00     0.052 A 
ATOM     22  C22 UNK     1       2.923  36.152 237.707  1.00  0.00     0.172 A 
ENDROOT
BRANCH   7  23
ATOM     23  O1  UNK     1       0.649  37.530 229.917  1.00  0.00    -0.381 OA
ATOM     24  H22 UNK     1       1.110  36.705 229.687  1.00  0.00     0.211 HD
ENDBRANCH   7  23
BRANCH   7  25
ATOM     25  C15 UNK     1      -1.197  36.478 229.091  1.00  0.00     0.185 C 
ATOM     26  O3  UNK     1      -2.325  35.987 229.063  1.00  0.00    -0.292 OA
BRANCH  25  27
ATOM     27  C20 UNK     1      -0.236  36.372 227.925  1.00  0.00     0.245 C 
BRANCH  27  28
ATOM     28  O4  UNK     1       0.791  35.447 228.209  1.00  0.00    -0.393 OA
ATOM     29  H29 UNK     1       0.500  34.912 228.968  1.00  0.00     0.209 HD
ENDBRANCH  27  28
ENDBRANCH  25  27
ENDBRANCH   7  25
BRANCH  11  30
ATOM     30  O2  UNK     1      -0.397  33.925 233.509  1.00  0.00    -0.392 OA
ATOM     31  H24 UNK     1      -0.774  34.117 234.384  1.00  0.00     0.210 HD
ENDBRANCH  11  30
TORSDOF 5
ENDMDL
MODEL 8
REMARK VINA RESULT:      -6.1      1.750      2.359
REMARK  5 active torsions:
REMARK  status: ('A' for Active; 'I' for Inactive)
REMARK    1  A    between atoms: O1_2  and  C5_11 
REMARK    2  A    between atoms: O2_3  and  C9_15 
REMARK    3  A    between atoms: O4_5  and  C20_26 
REMARK    4  A    between atoms: C5_11  and  C15_21 
REMARK    5  A    between atoms: C15_21  and  C20_26 
ROOT
ATOM      1  F1  UNK     1       0.889  37.517 234.147  1.00  0.00    -0.238 F 
ATOM      2  O5  UNK     1      -1.260  39.135 230.078  1.00  0.00    -0.289 OA
ATOM      3  C1  UNK     1       1.255  35.688 237.125  1.00  0.00     0.001 C 
ATOM      4  C2  UNK     1       1.540  35.225 235.679  1.00  0.00     0.005 C 
ATOM      5  C3  UNK     1       0.313  35.315 234.757  1.00  0.00     0.035 C 
ATOM      6  C4  UNK     1      -0.170  36.804 234.690  1.00  0.00     0.147 C 
ATOM      7  C5  UNK     1       2.643  35.404 237.779  1.00  0.00     0.131 C 
ATOM      8  C6  UNK     1       2.213  33.871 235.878  1.00  0.00     0.013 C 
ATOM      9  C7  UNK     1       0.829  37.170 237.056  1.00  0.00     0.048 C 
ATOM     10  C8  UNK     1       3.170  34.114 237.074  1.00  0.00     0.025 C 
ATOM     11  C9  UNK     1      -0.366  37.421 236.108  1.00  0.00     0.160 C 
ATOM     12  C10 UNK     1      -1.369  36.995 233.680  1.00  0.00     0.036 A 
ATOM     13  C11 UNK     1       0.658  34.777 233.355  1.00  0.00     0.013 C 
ATOM     14  C12 UNK     1       0.158  34.846 237.834  1.00  0.00     0.019 C 
ATOM     15  C13 UNK     1      -0.491  34.954 232.370  1.00  0.00     0.036 C 
ATOM     16  C14 UNK     1      -0.938  36.393 232.337  1.00  0.00    -0.061 A 
ATOM     17  C16 UNK     1       3.287  32.860 237.936  1.00  0.00     0.013 C 
ATOM     18  C17 UNK     1      -2.677  36.295 234.116  1.00  0.00     0.028 C 
ATOM     19  C18 UNK     1      -1.707  38.471 233.538  1.00  0.00    -0.006 A 
ATOM     20  C19 UNK     1      -0.903  37.085 231.187  1.00  0.00     0.058 A 
ATOM     21  C21 UNK     1      -1.672  39.166 232.396  1.00  0.00     0.052 A 
ATOM     22  C22 UNK     1      -1.279  38.512 231.135  1.00  0.00     0.172 A 
ENDROOT
BRANCH   7  23
ATOM     23  O1  UNK     1       3.549  36.474 237.482  1.00  0.00    -0.381 OA
ATOM     24  H22 UNK     1       4.391  36.097 237.172  1.00  0.00     0.211 HD
ENDBRANCH   7  23
BRANCH   7  25
ATOM     25  C15 UNK     1       2.639  35.409 239.279  1.00  0.00     0.185 C 
ATOM     26  O3  UNK     1       3.411  36.122 239.919  1.00  0.00    -0.292 OA
BRANCH  25  27
ATOM     27  C20 UNK     1       1.638  34.492 239.950  1.00  0.00     0.245 C 
BRANCH  27  28
ATOM     28  O4  UNK     1       0.958  35.169 240.986  1.00  0.00    -0.393 OA
ATOM     29  H29 UNK     1       0.134  35.523 240.610  1.00  0.00     0.209 HD
ENDBRANCH  27  28
ENDBRANCH  25  27
ENDBRANCH   7  25
BRANCH  11  30
ATOM     30  O2  UNK     1      -1.565  36.965 236.715  1.00  0.00    -0.392 OA
ATOM     31  H24 UNK     1      -1.499  35.999 236.810  1.00  0.00     0.210 HD
ENDBRANCH  11  30
TORSDOF 5
ENDMDL
MODEL 9
REMARK VINA RESULT:      -6.1      2.244      6.882
REMARK  5 active torsions:
REMARK  status: ('A' for Active; 'I' for Inactive)
REMARK    1  A    between atoms: O1_2  and  C5_11 
REMARK    2  A    between atoms: O2_3  and  C9_15 
REMARK    3  A    between atoms: O4_5  and  C20_26 
REMARK    4  A    between atoms: C5_11  and  C15_21 
REMARK    5  A    between atoms: C15_21  and  C20_26 
ROOT
ATOM      1  F1  UNK     1      -1.002  35.664 235.533  1.00  0.00    -0.238 F 
ATOM      2  O5  UNK     1      -0.405  33.950 240.061  1.00  0.00    -0.289 OA
ATOM      3  C1  UNK     1      -0.082  36.781 232.332  1.00  0.00     0.001 C 
ATOM      4  C2  UNK     1      -0.301  35.328 232.809  1.00  0.00     0.005 C 
ATOM      5  C3  UNK     1       0.611  34.928 233.981  1.00  0.00     0.035 C 
ATOM      6  C4  UNK     1       0.327  35.873 235.198  1.00  0.00     0.147 C 
ATOM      7  C5  UNK     1      -1.078  36.825 231.131  1.00  0.00     0.131 C 
ATOM      8  C6  UNK     1      -0.230  34.527 231.514  1.00  0.00     0.013 C 
ATOM      9  C7  UNK     1      -0.412  37.709 233.520  1.00  0.00     0.048 C 
ATOM     10  C8  UNK     1      -1.026  35.395 230.505  1.00  0.00     0.025 C 
ATOM     11  C9  UNK     1       0.393  37.379 234.797  1.00  0.00     0.160 C 
ATOM     12  C10 UNK     1       1.157  35.460 236.477  1.00  0.00     0.036 A 
ATOM     13  C11 UNK     1       0.380  33.452 234.357  1.00  0.00     0.013 C 
ATOM     14  C12 UNK     1       1.363  37.049 231.825  1.00  0.00     0.019 C 
ATOM     15  C13 UNK     1       1.175  33.039 235.589  1.00  0.00     0.036 C 
ATOM     16  C14 UNK     1       0.888  33.973 236.737  1.00  0.00    -0.061 A 
ATOM     17  C16 UNK     1      -0.431  35.280 229.105  1.00  0.00     0.013 C 
ATOM     18  C17 UNK     1       2.684  35.648 236.325  1.00  0.00     0.028 C 
ATOM     19  C18 UNK     1       0.743  36.310 237.669  1.00  0.00    -0.006 A 
ATOM     20  C19 UNK     1       0.384  33.496 237.886  1.00  0.00     0.058 A 
ATOM     21  C21 UNK     1       0.239  35.841 238.816  1.00  0.00     0.052 A 
ATOM     22  C22 UNK     1       0.039  34.393 239.007  1.00  0.00     0.172 A 
ENDROOT
BRANCH   7  23
ATOM     23  O1  UNK     1      -2.410  37.051 231.611  1.00  0.00    -0.381 OA
ATOM     24  H22 UNK     1      -3.015  37.102 230.852  1.00  0.00     0.211 HD
ENDBRANCH   7  23
BRANCH   7  25
ATOM     25  C15 UNK     1      -0.884  37.985 230.200  1.00  0.00     0.185 C 
ATOM     26  O3  UNK     1       0.099  38.056 229.463  1.00  0.00    -0.292 OA
BRANCH  25  27
ATOM     27  C20 UNK     1      -1.960  39.050 230.221  1.00  0.00     0.245 C 
BRANCH  27  28
ATOM     28  O4  UNK     1      -1.750  39.948 231.290  1.00  0.00    -0.393 OA
ATOM     29  H29 UNK     1      -1.164  39.507 231.930  1.00  0.00     0.209 HD
ENDBRANCH  27  28
ENDBRANCH  25  27
ENDBRANCH   7  25
BRANCH  11  30
ATOM     30  O2  UNK     1       1.733  37.822 234.649  1.00  0.00    -0.392 OA
ATOM     31  H24 UNK     1       2.118  37.899 235.539  1.00  0.00     0.210 HD
ENDBRANCH  11  30
TORSDOF 5
ENDMDL
