MODEL 1
REMARK VINA RESULT:      -7.1      0.000      0.000
REMARK  10 active torsions:
REMARK  status: ('A' for Active; 'I' for Inactive)
REMARK    1  A    between atoms: C3_4  and  C4_5 
REMARK    2  A    between atoms: C4_5  and  S2_6 
REMARK    3  A    between atoms: S2_6  and  C5_7 
REMARK    4  A    between atoms: C9_17  and  C18_37 
REMARK    5  A    between atoms: C11_21  and  N5_22 
REMARK       I    between atoms: N5_22  and  C12_23 
REMARK    6  A    between atoms: C12_23  and  C13_25 
REMARK    7  A    between atoms: C13_25  and  C15_30 
REMARK    8  A    between atoms: N6_26  and  O5_28 
REMARK    9  A    between atoms: C17_33  and  N7_34 
REMARK   10  A    between atoms: C18_37  and  O7_39 
ROOT
ATOM      1  C1  UNK     1      -1.935  36.675 232.533  1.00  0.00     0.187 C 
ATOM      2  S1  UNK     1      -3.579  37.106 232.790  1.00  0.00    -0.136 SA
ATOM      3  C2  UNK     1      -3.683  38.482 231.633  1.00  0.00     0.113 C 
ATOM      4  C3  UNK     1      -2.761  38.408 230.432  1.00  0.00    -0.027 C 
ATOM      5  C9  UNK     1      -1.474  38.005 230.496  1.00  0.00     0.116 C 
ATOM      6  N4  UNK     1      -1.082  37.216 231.596  1.00  0.00    -0.293 N 
ATOM      7  C10 UNK     1       0.052  36.666 232.225  1.00  0.00     0.251 C 
ATOM      8  O3  UNK     1       1.242  36.866 232.101  1.00  0.00    -0.271 OA
ATOM      9  C11 UNK     1      -0.843  35.775 233.122  1.00  0.00     0.211 C 
ENDROOT
BRANCH   9  10
ATOM     10  N5  UNK     1      -0.791  35.770 234.571  1.00  0.00    -0.340 N 
ATOM     11  C12 UNK     1       0.162  35.165 235.305  1.00  0.00     0.273 C 
ATOM     12  O4  UNK     1       0.965  34.359 234.837  1.00  0.00    -0.266 OA
ATOM     13  H11 UNK     1      -1.517  36.252 235.062  1.00  0.00     0.163 HD
BRANCH  11  14
ATOM     14  C13 UNK     1       0.258  35.473 236.776  1.00  0.00     0.149 C 
ATOM     15  N6  UNK     1      -0.116  34.653 237.694  1.00  0.00    -0.260 N 
ATOM     16  H6  UNK     1       0.083  33.653 237.679  1.00  0.00     0.194 HD
BRANCH  15  17
ATOM     17  O5  UNK     1      -0.834  35.299 238.721  1.00  0.00    -0.285 OA
ATOM     18  C14 UNK     1      -2.234  35.321 238.411  1.00  0.00     0.237 C 
ENDBRANCH  15  17
BRANCH  14  19
ATOM     19  C15 UNK     1       1.011  36.693 237.122  1.00  0.00     0.074 C 
ATOM     20  C16 UNK     1       2.332  36.746 237.392  1.00  0.00     0.084 C 
ATOM     21  S3  UNK     1       2.847  38.387 237.511  1.00  0.00    -0.070 SA
ATOM     22  C17 UNK     1       1.206  38.885 237.193  1.00  0.00     0.121 C 
ATOM     23  N8  UNK     1       0.341  37.903 237.197  1.00  0.00    -0.339 N 
ATOM     24  H8  UNK     1      -0.672  38.013 237.248  1.00  0.00     0.167 HD
BRANCH  22  25
ATOM     25  N7  UNK     1       0.902  40.179 236.960  1.00  0.00    -0.283 NA
ATOM     26  H16 UNK     1       0.436  40.259 236.079  1.00  0.00     0.126 HD
ATOM     27  H17 UNK     1       0.302  40.516 237.686  1.00  0.00     0.126 HD
ENDBRANCH  22  25
ENDBRANCH  14  19
ENDBRANCH  11  14
ENDBRANCH   9  10
BRANCH   5  28
ATOM     28  C18 UNK     1      -0.364  38.313 229.495  1.00  0.00     0.194 C 
ATOM     29  O6  UNK     1      -0.141  39.511 229.219  1.00  0.00    -0.645 OA
BRANCH  28  30
ATOM     30  O7  UNK     1       0.252  37.350 228.995  1.00  0.00    -0.772 OA
ATOM     31  H18 UNK     1       1.181  37.545 228.972  1.00  0.00     0.167 HD
ENDBRANCH  28  30
ENDBRANCH   5  28
BRANCH   4  32
ATOM     32  C4  UNK     1      -3.489  38.908 229.206  1.00  0.00     0.120 C 
BRANCH  32  33
ATOM     33  S2  UNK     1      -4.111  40.619 229.429  1.00  0.00    -0.088 SA
BRANCH  33  34
ATOM     34  C5  UNK     1      -2.783  41.649 228.932  1.00  0.00     0.164 A 
ATOM     35  N1  UNK     1      -1.860  42.001 229.780  1.00  0.00    -0.298 N 
ATOM     36  C6  UNK     1      -0.828  42.829 229.390  1.00  0.00     0.317 A 
ATOM     37  H1  UNK     1      -1.899  41.662 230.741  1.00  0.00     0.171 HD
ATOM     38  O1  UNK     1       0.007  43.119 230.265  1.00  0.00    -0.262 OA
ATOM     39  C7  UNK     1      -0.739  43.320 228.103  1.00  0.00     0.328 A 
ATOM     40  O2  UNK     1       0.170  44.052 227.746  1.00  0.00    -0.261 OA
ATOM     41  N2  UNK     1      -1.719  42.956 227.205  1.00  0.00    -0.258 N 
ATOM     42  N3  UNK     1      -2.771  42.098 227.633  1.00  0.00    -0.272 N 
ATOM     43  H6  UNK     1      -1.691  43.291 226.263  1.00  0.00     0.190 HD
ATOM     44  C8  UNK     1      -3.789  41.738 226.636  1.00  0.00     0.180 C 
ENDBRANCH  33  34
ENDBRANCH  32  33
ENDBRANCH   4  32
TORSDOF 10
ENDMDL
MODEL 2
REMARK VINA RESULT:      -7.0      1.630      2.214
REMARK  10 active torsions:
REMARK  status: ('A' for Active; 'I' for Inactive)
REMARK    1  A    between atoms: C3_4  and  C4_5 
REMARK    2  A    between atoms: C4_5  and  S2_6 
REMARK    3  A    between atoms: S2_6  and  C5_7 
REMARK    4  A    between atoms: C9_17  and  C18_37 
REMARK    5  A    between atoms: C11_21  and  N5_22 
REMARK       I    between atoms: N5_22  and  C12_23 
REMARK    6  A    between atoms: C12_23  and  C13_25 
REMARK    7  A    between atoms: C13_25  and  C15_30 
REMARK    8  A    between atoms: N6_26  and  O5_28 
REMARK    9  A    between atoms: C17_33  and  N7_34 
REMARK   10  A    between atoms: C18_37  and  O7_39 
ROOT
ATOM      1  C1  UNK     1      -1.645  37.543 232.975  1.00  0.00     0.187 C 
ATOM      2  S1  UNK     1      -3.082  38.436 233.278  1.00  0.00    -0.136 SA
ATOM      3  C2  UNK     1      -3.233  39.258 231.683  1.00  0.00     0.113 C 
ATOM      4  C3  UNK     1      -2.655  38.511 230.497  1.00  0.00    -0.027 C 
ATOM      5  C9  UNK     1      -1.477  37.852 230.524  1.00  0.00     0.116 C 
ATOM      6  N4  UNK     1      -0.968  37.460 231.778  1.00  0.00    -0.293 N 
ATOM      7  C10 UNK     1       0.177  36.920 232.397  1.00  0.00     0.251 C 
ATOM      8  O3  UNK     1       1.317  36.754 232.018  1.00  0.00    -0.271 OA
ATOM      9  C11 UNK     1      -0.610  36.686 233.710  1.00  0.00     0.211 C 
ENDROOT
BRANCH   9  10
ATOM     10  N5  UNK     1      -0.208  37.210 235.001  1.00  0.00    -0.340 N 
ATOM     11  C12 UNK     1      -0.587  36.702 236.190  1.00  0.00     0.273 C 
ATOM     12  O4  UNK     1      -1.494  35.881 236.316  1.00  0.00    -0.266 OA
ATOM     13  H11 UNK     1       0.394  38.008 235.010  1.00  0.00     0.163 HD
BRANCH  11  14
ATOM     14  C13 UNK     1       0.121  37.158 237.438  1.00  0.00     0.149 C 
ATOM     15  N6  UNK     1      -0.259  38.171 238.134  1.00  0.00    -0.260 N 
ATOM     16  H6  UNK     1      -1.232  38.371 238.364  1.00  0.00     0.194 HD
BRANCH  15  17
ATOM     17  O5  UNK     1       0.826  38.973 238.540  1.00  0.00    -0.285 OA
ATOM     18  C14 UNK     1       1.352  39.701 237.421  1.00  0.00     0.237 C 
ENDBRANCH  15  17
BRANCH  14  19
ATOM     19  C15 UNK     1       1.161  36.245 237.949  1.00  0.00     0.074 C 
ATOM     20  C16 UNK     1       1.803  35.307 237.221  1.00  0.00     0.084 C 
ATOM     21  S3  UNK     1       3.097  34.631 238.137  1.00  0.00    -0.070 SA
ATOM     22  C17 UNK     1       2.656  35.677 239.461  1.00  0.00     0.121 C 
ATOM     23  N8  UNK     1       1.529  36.317 239.282  1.00  0.00    -0.339 N 
ATOM     24  H8  UNK     1       1.002  36.795 240.013  1.00  0.00     0.167 HD
BRANCH  22  25
ATOM     25  N7  UNK     1       3.442  35.792 240.552  1.00  0.00    -0.283 NA
ATOM     26  H16 UNK     1       4.215  35.162 240.475  1.00  0.00     0.126 HD
ATOM     27  H17 UNK     1       3.783  36.730 240.620  1.00  0.00     0.126 HD
ENDBRANCH  22  25
ENDBRANCH  14  19
ENDBRANCH  11  14
ENDBRANCH   9  10
BRANCH   5  28
ATOM     28  C18 UNK     1      -0.609  37.474 229.328  1.00  0.00     0.194 C 
ATOM     29  O6  UNK     1       0.344  38.227 229.036  1.00  0.00    -0.645 OA
BRANCH  28  30
ATOM     30  O7  UNK     1      -0.906  36.439 228.697  1.00  0.00    -0.772 OA
ATOM     31  H18 UNK     1      -1.496  36.660 227.986  1.00  0.00     0.167 HD
ENDBRANCH  28  30
ENDBRANCH   5  28
BRANCH   4  32
ATOM     32  C4  UNK     1      -3.566  38.682 229.303  1.00  0.00     0.120 C 
BRANCH  32  33
ATOM     33  S2  UNK     1      -4.322  40.351 229.252  1.00  0.00    -0.088 SA
BRANCH  33  34
ATOM     34  C5  UNK     1      -3.023  41.419 228.758  1.00  0.00     0.164 A 
ATOM     35  N1  UNK     1      -2.114  41.799 229.610  1.00  0.00    -0.298 N 
ATOM     36  C6  UNK     1      -1.106  42.657 229.222  1.00  0.00     0.317 A 
ATOM     37  H1  UNK     1      -2.148  41.461 230.571  1.00  0.00     0.171 HD
ATOM     38  O1  UNK     1      -0.283  42.972 230.100  1.00  0.00    -0.262 OA
ATOM     39  C7  UNK     1      -1.027  43.149 227.935  1.00  0.00     0.328 A 
ATOM     40  O2  UNK     1      -0.138  43.908 227.581  1.00  0.00    -0.261 OA
ATOM     41  N2  UNK     1      -1.992  42.756 227.034  1.00  0.00    -0.258 N 
ATOM     42  N3  UNK     1      -3.021  41.867 227.459  1.00  0.00    -0.272 N 
ATOM     43  H6  UNK     1      -1.971  43.091 226.092  1.00  0.00     0.190 HD
ATOM     44  C8  UNK     1      -4.024  41.477 226.459  1.00  0.00     0.180 C 
ENDBRANCH  33  34
ENDBRANCH  32  33
ENDBRANCH   4  32
TORSDOF 10
ENDMDL
MODEL 3
REMARK VINA RESULT:      -6.7      3.096      9.523
REMARK  10 active torsions:
REMARK  status: ('A' for Active; 'I' for Inactive)
REMARK    1  A    between atoms: C3_4  and  C4_5 
REMARK    2  A    between atoms: C4_5  and  S2_6 
REMARK    3  A    between atoms: S2_6  and  C5_7 
REMARK    4  A    between atoms: C9_17  and  C18_37 
REMARK    5  A    between atoms: C11_21  and  N5_22 
REMARK       I    between atoms: N5_22  and  C12_23 
REMARK    6  A    between atoms: C12_23  and  C13_25 
REMARK    7  A    between atoms: C13_25  and  C15_30 
REMARK    8  A    between atoms: N6_26  and  O5_28 
REMARK    9  A    between atoms: C17_33  and  N7_34 
REMARK   10  A    between atoms: C18_37  and  O7_39 
ROOT
ATOM      1  C1  UNK     1      -1.515  38.090 232.705  1.00  0.00     0.187 C 
ATOM      2  S1  UNK     1       0.150  38.225 233.110  1.00  0.00    -0.136 SA
ATOM      3  C2  UNK     1       0.052  37.717 234.836  1.00  0.00     0.113 C 
ATOM      4  C3  UNK     1      -1.068  36.755 235.179  1.00  0.00    -0.027 C 
ATOM      5  C9  UNK     1      -2.325  36.860 234.697  1.00  0.00     0.116 C 
ATOM      6  N4  UNK     1      -2.518  37.600 233.513  1.00  0.00    -0.293 N 
ATOM      7  C10 UNK     1      -3.525  38.132 232.683  1.00  0.00     0.251 C 
ATOM      8  O3  UNK     1      -4.718  38.294 232.835  1.00  0.00    -0.271 OA
ATOM      9  C11 UNK     1      -2.488  38.438 231.574  1.00  0.00     0.211 C 
ENDROOT
BRANCH   9  10
ATOM     10  N5  UNK     1      -2.284  39.751 230.994  1.00  0.00    -0.340 N 
ATOM     11  C12 UNK     1      -1.446  40.020 229.974  1.00  0.00     0.273 C 
ATOM     12  O4  UNK     1      -0.595  39.228 229.572  1.00  0.00    -0.266 OA
ATOM     13  H11 UNK     1      -2.803  40.514 231.380  1.00  0.00     0.163 HD
BRANCH  11  14
ATOM     14  C13 UNK     1      -1.539  41.356 229.285  1.00  0.00     0.149 C 
ATOM     15  N6  UNK     1      -2.657  41.923 228.997  1.00  0.00    -0.260 N 
ATOM     16  H6  UNK     1      -3.456  41.961 229.629  1.00  0.00     0.194 HD
BRANCH  15  17
ATOM     17  O5  UNK     1      -2.649  42.486 227.705  1.00  0.00    -0.285 OA
ATOM     18  C14 UNK     1      -3.789  42.037 226.960  1.00  0.00     0.237 C 
ENDBRANCH  15  17
BRANCH  14  19
ATOM     19  C15 UNK     1      -0.268  42.090 229.146  1.00  0.00     0.074 C 
ATOM     20  C16 UNK     1       0.136  43.108 229.935  1.00  0.00     0.084 C 
ATOM     21  S3  UNK     1       1.772  43.519 229.581  1.00  0.00    -0.070 SA
ATOM     22  C17 UNK     1       1.782  42.269 228.364  1.00  0.00     0.121 C 
ATOM     23  N8  UNK     1       0.606  41.745 228.130  1.00  0.00    -0.339 N 
ATOM     24  H8  UNK     1       0.370  41.170 227.321  1.00  0.00     0.167 HD
BRANCH  22  25
ATOM     25  N7  UNK     1       2.926  41.901 227.750  1.00  0.00    -0.283 NA
ATOM     26  H16 UNK     1       3.652  42.549 227.980  1.00  0.00     0.126 HD
ATOM     27  H17 UNK     1       3.188  40.985 228.054  1.00  0.00     0.126 HD
ENDBRANCH  22  25
ENDBRANCH  14  19
ENDBRANCH  11  14
ENDBRANCH   9  10
BRANCH   5  28
ATOM     28  C18 UNK     1      -3.593  36.263 235.299  1.00  0.00     0.194 C 
ATOM     29  O6  UNK     1      -3.702  35.019 235.316  1.00  0.00    -0.645 OA
BRANCH  28  30
ATOM     30  O7  UNK     1      -4.460  37.051 235.729  1.00  0.00    -0.772 OA
ATOM     31  H18 UNK     1      -4.899  37.469 234.998  1.00  0.00     0.167 HD
ENDBRANCH  28  30
ENDBRANCH   5  28
BRANCH   4  32
ATOM     32  C4  UNK     1      -0.566  35.730 236.171  1.00  0.00     0.120 C 
BRANCH  32  33
ATOM     33  S2  UNK     1      -0.769  36.298 237.903  1.00  0.00    -0.088 SA
BRANCH  33  34
ATOM     34  C5  UNK     1       0.856  36.651 238.455  1.00  0.00     0.164 A 
ATOM     35  N1  UNK     1       1.657  35.693 238.823  1.00  0.00    -0.298 N 
ATOM     36  C6  UNK     1       2.928  35.978 239.277  1.00  0.00     0.317 A 
ATOM     37  H1  UNK     1       1.343  34.724 238.776  1.00  0.00     0.171 HD
ATOM     38  O1  UNK     1       3.624  35.003 239.612  1.00  0.00    -0.262 OA
ATOM     39  C7  UNK     1       3.392  37.274 239.368  1.00  0.00     0.328 A 
ATOM     40  O2  UNK     1       4.516  37.538 239.767  1.00  0.00    -0.261 OA
ATOM     41  N2  UNK     1       2.544  38.291 238.987  1.00  0.00    -0.258 N 
ATOM     42  N3  UNK     1       1.238  37.970 238.519  1.00  0.00    -0.272 N 
ATOM     43  H6  UNK     1       2.842  39.244 239.040  1.00  0.00     0.190 HD
ATOM     44  C8  UNK     1       0.374  39.090 238.123  1.00  0.00     0.180 C 
ENDBRANCH  33  34
ENDBRANCH  32  33
ENDBRANCH   4  32
TORSDOF 10
ENDMDL
MODEL 4
REMARK VINA RESULT:      -6.7      2.575      8.891
REMARK  10 active torsions:
REMARK  status: ('A' for Active; 'I' for Inactive)
REMARK    1  A    between atoms: C3_4  and  C4_5 
REMARK    2  A    between atoms: C4_5  and  S2_6 
REMARK    3  A    between atoms: S2_6  and  C5_7 
REMARK    4  A    between atoms: C9_17  and  C18_37 
REMARK    5  A    between atoms: C11_21  and  N5_22 
REMARK       I    between atoms: N5_22  and  C12_23 
REMARK    6  A    between atoms: C12_23  and  C13_25 
REMARK    7  A    between atoms: C13_25  and  C15_30 
REMARK    8  A    between atoms: N6_26  and  O5_28 
REMARK    9  A    between atoms: C17_33  and  N7_34 
REMARK   10  A    between atoms: C18_37  and  O7_39 
ROOT
ATOM      1  C1  UNK     1      -1.541  38.330 231.753  1.00  0.00     0.187 C 
ATOM      2  S1  UNK     1      -1.928  38.979 233.298  1.00  0.00    -0.136 SA
ATOM      3  C2  UNK     1      -2.888  37.597 233.940  1.00  0.00     0.113 C 
ATOM      4  C3  UNK     1      -2.516  36.228 233.406  1.00  0.00    -0.027 C 
ATOM      5  C9  UNK     1      -2.230  35.978 232.110  1.00  0.00     0.116 C 
ATOM      6  N4  UNK     1      -1.829  37.061 231.302  1.00  0.00    -0.293 N 
ATOM      7  C10 UNK     1      -1.562  37.413 229.964  1.00  0.00     0.251 C 
ATOM      8  O3  UNK     1      -1.788  36.865 228.906  1.00  0.00    -0.271 OA
ATOM      9  C11 UNK     1      -0.926  38.752 230.415  1.00  0.00     0.211 C 
ENDROOT
BRANCH   9  10
ATOM     10  N5  UNK     1      -1.356  40.054 229.944  1.00  0.00    -0.340 N 
ATOM     11  C12 UNK     1      -0.631  40.864 229.148  1.00  0.00     0.273 C 
ATOM     12  O4  UNK     1       0.566  40.690 228.919  1.00  0.00    -0.266 OA
ATOM     13  H11 UNK     1      -2.258  40.376 230.232  1.00  0.00     0.163 HD
BRANCH  11  14
ATOM     14  C13 UNK     1      -1.301  42.049 228.506  1.00  0.00     0.149 C 
ATOM     15  N6  UNK     1      -2.518  42.030 228.089  1.00  0.00    -0.260 N 
ATOM     16  H6  UNK     1      -3.291  41.611 228.607  1.00  0.00     0.194 HD
BRANCH  15  17
ATOM     17  O5  UNK     1      -2.658  42.654 226.833  1.00  0.00    -0.285 OA
ATOM     18  C14 UNK     1      -4.036  42.966 226.585  1.00  0.00     0.237 C 
ENDBRANCH  15  17
BRANCH  14  19
ATOM     19  C15 UNK     1      -0.551  43.317 228.572  1.00  0.00     0.074 C 
ATOM     20  C16 UNK     1      -0.149  43.928 229.707  1.00  0.00     0.084 C 
ATOM     21  S3  UNK     1       0.894  45.248 229.331  1.00  0.00    -0.070 SA
ATOM     22  C17 UNK     1       0.694  44.874 227.639  1.00  0.00     0.121 C 
ATOM     23  N8  UNK     1      -0.223  43.972 227.397  1.00  0.00    -0.339 N 
ATOM     24  H8  UNK     1      -0.633  43.781 226.483  1.00  0.00     0.167 HD
BRANCH  22  25
ATOM     25  N7  UNK     1       1.445  45.480 226.696  1.00  0.00    -0.283 NA
ATOM     26  H16 UNK     1       2.415  45.351 226.907  1.00  0.00     0.126 HD
ATOM     27  H17 UNK     1       1.244  45.081 225.801  1.00  0.00     0.126 HD
ENDBRANCH  22  25
ENDBRANCH  14  19
ENDBRANCH  11  14
ENDBRANCH   9  10
BRANCH   5  28
ATOM     28  C18 UNK     1      -2.293  34.630 231.399  1.00  0.00     0.194 C 
ATOM     29  O6  UNK     1      -3.391  34.267 230.929  1.00  0.00    -0.645 OA
BRANCH  28  30
ATOM     30  O7  UNK     1      -1.244  33.955 231.337  1.00  0.00    -0.772 OA
ATOM     31  H18 UNK     1      -1.317  33.320 230.635  1.00  0.00     0.167 HD
ENDBRANCH  28  30
ENDBRANCH   5  28
BRANCH   4  32
ATOM     32  C4  UNK     1      -2.583  35.215 234.526  1.00  0.00     0.120 C 
BRANCH  32  33
ATOM     33  S2  UNK     1      -0.918  34.800 235.174  1.00  0.00    -0.088 SA
BRANCH  33  34
ATOM     34  C5  UNK     1      -0.404  36.231 236.045  1.00  0.00     0.164 A 
ATOM     35  N1  UNK     1       0.391  37.100 235.488  1.00  0.00    -0.298 N 
ATOM     36  C6  UNK     1       0.809  38.214 236.185  1.00  0.00     0.317 A 
ATOM     37  H1  UNK     1       0.707  36.956 234.529  1.00  0.00     0.171 HD
ATOM     38  O1  UNK     1       1.571  38.988 235.580  1.00  0.00    -0.262 OA
ATOM     39  C7  UNK     1       0.417  38.445 237.488  1.00  0.00     0.328 A 
ATOM     40  O2  UNK     1       0.780  39.428 238.114  1.00  0.00    -0.261 OA
ATOM     41  N2  UNK     1      -0.418  37.523 238.083  1.00  0.00    -0.258 N 
ATOM     42  N3  UNK     1      -0.838  36.383 237.340  1.00  0.00    -0.272 N 
ATOM     43  H6  UNK     1      -0.724  37.653 239.026  1.00  0.00     0.190 HD
ATOM     44  C8  UNK     1      -1.729  35.433 238.019  1.00  0.00     0.180 C 
ENDBRANCH  33  34
ENDBRANCH  32  33
ENDBRANCH   4  32
TORSDOF 10
ENDMDL
MODEL 5
REMARK VINA RESULT:      -6.4      2.590      9.480
REMARK  10 active torsions:
REMARK  status: ('A' for Active; 'I' for Inactive)
REMARK    1  A    between atoms: C3_4  and  C4_5 
REMARK    2  A    between atoms: C4_5  and  S2_6 
REMARK    3  A    between atoms: S2_6  and  C5_7 
REMARK    4  A    between atoms: C9_17  and  C18_37 
REMARK    5  A    between atoms: C11_21  and  N5_22 
REMARK       I    between atoms: N5_22  and  C12_23 
REMARK    6  A    between atoms: C12_23  and  C13_25 
REMARK    7  A    between atoms: C13_25  and  C15_30 
REMARK    8  A    between atoms: N6_26  and  O5_28 
REMARK    9  A    between atoms: C17_33  and  N7_34 
REMARK   10  A    between atoms: C18_37  and  O7_39 
ROOT
ATOM      1  C1  UNK     1      -1.022  37.376 232.878  1.00  0.00     0.187 C 
ATOM      2  S1  UNK     1       0.684  37.161 232.828  1.00  0.00    -0.136 SA
ATOM      3  C2  UNK     1       0.929  36.544 234.502  1.00  0.00     0.113 C 
ATOM      4  C3  UNK     1      -0.238  35.786 235.105  1.00  0.00    -0.027 C 
ATOM      5  C9  UNK     1      -1.527  36.166 234.979  1.00  0.00     0.116 C 
ATOM      6  N4  UNK     1      -1.862  37.021 233.910  1.00  0.00    -0.293 N 
ATOM      7  C10 UNK     1      -2.918  37.799 233.394  1.00  0.00     0.251 C 
ATOM      8  O3  UNK     1      -3.974  38.170 233.862  1.00  0.00    -0.271 OA
ATOM      9  C11 UNK     1      -2.159  37.991 232.057  1.00  0.00     0.211 C 
ENDROOT
BRANCH   9  10
ATOM     10  N5  UNK     1      -1.848  39.284 231.480  1.00  0.00    -0.340 N 
ATOM     11  C12 UNK     1      -1.430  39.482 230.214  1.00  0.00     0.273 C 
ATOM     12  O4  UNK     1      -1.049  38.572 229.478  1.00  0.00    -0.266 OA
ATOM     13  H11 UNK     1      -1.949  40.089 232.064  1.00  0.00     0.163 HD
BRANCH  11  14
ATOM     14  C13 UNK     1      -1.417  40.882 229.660  1.00  0.00     0.149 C 
ATOM     15  N6  UNK     1      -0.454  41.710 229.862  1.00  0.00    -0.260 N 
ATOM     16  H6  UNK     1       0.534  41.459 229.812  1.00  0.00     0.194 HD
BRANCH  15  17
ATOM     17  O5  UNK     1      -0.922  43.005 230.161  1.00  0.00    -0.285 OA
ATOM     18  C14 UNK     1       0.045  43.987 229.763  1.00  0.00     0.237 C 
ENDBRANCH  15  17
BRANCH  14  19
ATOM     19  C15 UNK     1      -2.478  41.189 228.683  1.00  0.00     0.074 C 
ATOM     20  C16 UNK     1      -3.720  40.661 228.686  1.00  0.00     0.084 C 
ATOM     21  S3  UNK     1      -4.708  41.463 227.524  1.00  0.00    -0.070 SA
ATOM     22  C17 UNK     1      -3.339  42.461 227.106  1.00  0.00     0.121 C 
ATOM     23  N8  UNK     1      -2.215  42.080 227.655  1.00  0.00    -0.339 N 
ATOM     24  H8  UNK     1      -1.286  42.391 227.370  1.00  0.00     0.167 HD
BRANCH  22  25
ATOM     25  N7  UNK     1      -3.476  43.527 226.290  1.00  0.00    -0.283 NA
ATOM     26  H16 UNK     1      -3.924  44.272 226.786  1.00  0.00     0.126 HD
ATOM     27  H17 UNK     1      -2.573  43.828 225.981  1.00  0.00     0.126 HD
ENDBRANCH  22  25
ENDBRANCH  14  19
ENDBRANCH  11  14
ENDBRANCH   9  10
BRANCH   5  28
ATOM     28  C18 UNK     1      -2.693  35.772 235.881  1.00  0.00     0.194 C 
ATOM     29  O6  UNK     1      -2.932  36.489 236.875  1.00  0.00    -0.645 OA
BRANCH  28  30
ATOM     30  O7  UNK     1      -3.337  34.745 235.583  1.00  0.00    -0.772 OA
ATOM     31  H18 UNK     1      -3.505  34.238 236.369  1.00  0.00     0.167 HD
ENDBRANCH  28  30
ENDBRANCH   5  28
BRANCH   4  32
ATOM     32  C4  UNK     1       0.283  34.610 235.899  1.00  0.00     0.120 C 
BRANCH  32  33
ATOM     33  S2  UNK     1       0.168  34.898 237.706  1.00  0.00    -0.088 SA
BRANCH  33  34
ATOM     34  C5  UNK     1       1.203  36.279 238.008  1.00  0.00     0.164 A 
ATOM     35  N1  UNK     1       0.697  37.467 238.175  1.00  0.00    -0.298 N 
ATOM     36  C6  UNK     1       1.518  38.555 238.391  1.00  0.00     0.317 A 
ATOM     37  H1  UNK     1      -0.314  37.596 238.146  1.00  0.00     0.171 HD
ATOM     38  O1  UNK     1       0.950  39.652 238.536  1.00  0.00    -0.262 OA
ATOM     39  C7  UNK     1       2.892  38.431 238.428  1.00  0.00     0.328 A 
ATOM     40  O2  UNK     1       3.627  39.386 238.620  1.00  0.00    -0.261 OA
ATOM     41  N2  UNK     1       3.431  37.177 238.243  1.00  0.00    -0.258 N 
ATOM     42  N3  UNK     1       2.562  36.070 238.025  1.00  0.00    -0.272 N 
ATOM     43  H6  UNK     1       4.422  37.045 238.262  1.00  0.00     0.190 HD
ATOM     44  C8  UNK     1       3.187  34.754 237.836  1.00  0.00     0.180 C 
ENDBRANCH  33  34
ENDBRANCH  32  33
ENDBRANCH   4  32
TORSDOF 10
ENDMDL
MODEL 6
REMARK VINA RESULT:      -6.3      2.919     10.339
REMARK  10 active torsions:
REMARK  status: ('A' for Active; 'I' for Inactive)
REMARK    1  A    between atoms: C3_4  and  C4_5 
REMARK    2  A    between atoms: C4_5  and  S2_6 
REMARK    3  A    between atoms: S2_6  and  C5_7 
REMARK    4  A    between atoms: C9_17  and  C18_37 
REMARK    5  A    between atoms: C11_21  and  N5_22 
REMARK       I    between atoms: N5_22  and  C12_23 
REMARK    6  A    between atoms: C12_23  and  C13_25 
REMARK    7  A    between atoms: C13_25  and  C15_30 
REMARK    8  A    between atoms: N6_26  and  O5_28 
REMARK    9  A    between atoms: C17_33  and  N7_34 
REMARK   10  A    between atoms: C18_37  and  O7_39 
ROOT
ATOM      1  C1  UNK     1      -1.247  37.677 233.000  1.00  0.00     0.187 C 
ATOM      2  S1  UNK     1       0.458  37.523 233.166  1.00  0.00    -0.136 SA
ATOM      3  C2  UNK     1       0.515  36.966 234.878  1.00  0.00     0.113 C 
ATOM      4  C3  UNK     1      -0.691  36.185 235.360  1.00  0.00    -0.027 C 
ATOM      5  C9  UNK     1      -1.967  36.514 235.065  1.00  0.00     0.116 C 
ATOM      6  N4  UNK     1      -2.196  37.323 233.933  1.00  0.00    -0.293 N 
ATOM      7  C10 UNK     1      -3.205  38.046 233.266  1.00  0.00     0.251 C 
ATOM      8  O3  UNK     1      -4.321  38.393 233.590  1.00  0.00    -0.271 OA
ATOM      9  C11 UNK     1      -2.294  38.225 232.027  1.00  0.00     0.211 C 
ENDROOT
BRANCH   9  10
ATOM     10  N5  UNK     1      -1.956  39.511 231.447  1.00  0.00    -0.340 N 
ATOM     11  C12 UNK     1      -1.428  39.688 230.220  1.00  0.00     0.273 C 
ATOM     12  O4  UNK     1      -0.964  38.770 229.546  1.00  0.00    -0.266 OA
ATOM     13  H11 UNK     1      -2.126  40.327 231.999  1.00  0.00     0.163 HD
BRANCH  11  14
ATOM     14  C13 UNK     1      -1.391  41.074 229.634  1.00  0.00     0.149 C 
ATOM     15  N6  UNK     1      -0.432  41.904 229.848  1.00  0.00    -0.260 N 
ATOM     16  H6  UNK     1       0.556  41.649 229.837  1.00  0.00     0.194 HD
BRANCH  15  17
ATOM     17  O5  UNK     1      -0.904  43.208 230.101  1.00  0.00    -0.285 OA
ATOM     18  C14 UNK     1       0.118  44.171 229.812  1.00  0.00     0.237 C 
ENDBRANCH  15  17
BRANCH  14  19
ATOM     19  C15 UNK     1      -2.418  41.362 228.616  1.00  0.00     0.074 C 
ATOM     20  C16 UNK     1      -3.653  40.820 228.577  1.00  0.00     0.084 C 
ATOM     21  S3  UNK     1      -4.606  41.602 227.372  1.00  0.00    -0.070 SA
ATOM     22  C17 UNK     1      -3.234  42.612 226.998  1.00  0.00     0.121 C 
ATOM     23  N8  UNK     1      -2.127  42.248 227.592  1.00  0.00    -0.339 N 
ATOM     24  H8  UNK     1      -1.192  42.568 227.339  1.00  0.00     0.167 HD
BRANCH  22  25
ATOM     25  N7  UNK     1      -3.352  43.671 226.169  1.00  0.00    -0.283 NA
ATOM     26  H16 UNK     1      -3.576  44.488 226.701  1.00  0.00     0.126 HD
ATOM     27  H17 UNK     1      -2.488  43.814 225.686  1.00  0.00     0.126 HD
ENDBRANCH  22  25
ENDBRANCH  14  19
ENDBRANCH  11  14
ENDBRANCH   9  10
BRANCH   5  28
ATOM     28  C18 UNK     1      -3.222  36.105 235.830  1.00  0.00     0.194 C 
ATOM     29  O6  UNK     1      -4.041  35.359 235.255  1.00  0.00    -0.645 OA
BRANCH  28  30
ATOM     30  O7  UNK     1      -3.368  36.551 236.987  1.00  0.00    -0.772 OA
ATOM     31  H18 UNK     1      -2.975  37.414 237.046  1.00  0.00     0.167 HD
ENDBRANCH  28  30
ENDBRANCH   5  28
BRANCH   4  32
ATOM     32  C4  UNK     1      -0.235  35.052 236.251  1.00  0.00     0.120 C 
BRANCH  32  33
ATOM     33  S2  UNK     1       1.352  35.435 237.085  1.00  0.00    -0.088 SA
BRANCH  33  34
ATOM     34  C5  UNK     1       2.297  33.965 236.953  1.00  0.00     0.164 A 
ATOM     35  N1  UNK     1       2.391  33.335 235.817  1.00  0.00    -0.298 N 
ATOM     36  C6  UNK     1       3.118  32.167 235.723  1.00  0.00     0.317 A 
ATOM     37  H1  UNK     1       1.924  33.707 234.991  1.00  0.00     0.171 HD
ATOM     38  O1  UNK     1       3.152  31.628 234.602  1.00  0.00    -0.262 OA
ATOM     39  C7  UNK     1       3.758  31.619 236.816  1.00  0.00     0.328 A 
ATOM     40  O2  UNK     1       4.405  30.587 236.744  1.00  0.00    -0.261 OA
ATOM     41  N2  UNK     1       3.653  32.280 238.021  1.00  0.00    -0.258 N 
ATOM     42  N3  UNK     1       2.899  33.486 238.091  1.00  0.00    -0.272 N 
ATOM     43  H6  UNK     1       4.101  31.916 238.838  1.00  0.00     0.190 HD
ATOM     44  C8  UNK     1       2.821  34.152 239.398  1.00  0.00     0.180 C 
ENDBRANCH  33  34
ENDBRANCH  32  33
ENDBRANCH   4  32
TORSDOF 10
ENDMDL
MODEL 7
REMARK VINA RESULT:      -6.3      3.334     10.527
REMARK  10 active torsions:
REMARK  status: ('A' for Active; 'I' for Inactive)
REMARK    1  A    between atoms: C3_4  and  C4_5 
REMARK    2  A    between atoms: C4_5  and  S2_6 
REMARK    3  A    between atoms: S2_6  and  C5_7 
REMARK    4  A    between atoms: C9_17  and  C18_37 
REMARK    5  A    between atoms: C11_21  and  N5_22 
REMARK       I    between atoms: N5_22  and  C12_23 
REMARK    6  A    between atoms: C12_23  and  C13_25 
REMARK    7  A    between atoms: C13_25  and  C15_30 
REMARK    8  A    between atoms: N6_26  and  O5_28 
REMARK    9  A    between atoms: C17_33  and  N7_34 
REMARK   10  A    between atoms: C18_37  and  O7_39 
ROOT
ATOM      1  C1  UNK     1      -0.435  36.682 236.163  1.00  0.00     0.187 C 
ATOM      2  S1  UNK     1      -1.123  35.129 236.434  1.00  0.00    -0.136 SA
ATOM      3  C2  UNK     1       0.108  34.483 237.578  1.00  0.00     0.113 C 
ATOM      4  C3  UNK     1       0.822  35.512 238.433  1.00  0.00    -0.027 C 
ATOM      5  C9  UNK     1       1.259  36.702 237.970  1.00  0.00     0.116 C 
ATOM      6  N4  UNK     1       0.668  37.211 236.795  1.00  0.00    -0.293 N 
ATOM      7  C10 UNK     1       0.795  38.239 235.840  1.00  0.00     0.251 C 
ATOM      8  O3  UNK     1       1.682  39.028 235.591  1.00  0.00    -0.271 OA
ATOM      9  C11 UNK     1      -0.601  37.905 235.257  1.00  0.00     0.211 C 
ENDROOT
BRANCH   9  10
ATOM     10  N5  UNK     1      -0.844  37.587 233.863  1.00  0.00    -0.340 N 
ATOM     11  C12 UNK     1      -1.586  38.332 233.021  1.00  0.00     0.273 C 
ATOM     12  O4  UNK     1      -2.327  39.240 233.397  1.00  0.00    -0.266 OA
ATOM     13  H11 UNK     1      -0.429  36.753 233.499  1.00  0.00     0.163 HD
BRANCH  11  14
ATOM     14  C13 UNK     1      -1.524  38.046 231.544  1.00  0.00     0.149 C 
ATOM     15  N6  UNK     1      -1.312  36.873 231.062  1.00  0.00    -0.260 N 
ATOM     16  H6  UNK     1      -1.749  36.023 231.419  1.00  0.00     0.194 HD
BRANCH  15  17
ATOM     17  O5  UNK     1      -0.404  36.898 229.984  1.00  0.00    -0.285 OA
ATOM     18  C14 UNK     1       0.837  36.288 230.366  1.00  0.00     0.237 C 
ENDBRANCH  15  17
BRANCH  14  19
ATOM     19  C15 UNK     1      -1.936  39.155 230.664  1.00  0.00     0.074 C 
ATOM     20  C16 UNK     1      -3.056  39.180 229.911  1.00  0.00     0.084 C 
ATOM     21  S3  UNK     1      -3.274  40.746 229.225  1.00  0.00    -0.070 SA
ATOM     22  C17 UNK     1      -1.803  41.253 230.012  1.00  0.00     0.121 C 
ATOM     23  N8  UNK     1      -1.130  40.277 230.565  1.00  0.00    -0.339 N 
ATOM     24  H8  UNK     1      -0.160  40.333 230.876  1.00  0.00     0.167 HD
BRANCH  22  25
ATOM     25  N7  UNK     1      -1.433  42.551 230.032  1.00  0.00    -0.283 NA
ATOM     26  H16 UNK     1      -2.000  43.070 229.392  1.00  0.00     0.126 HD
ATOM     27  H17 UNK     1      -1.551  42.918 230.955  1.00  0.00     0.126 HD
ENDBRANCH  22  25
ENDBRANCH  14  19
ENDBRANCH  11  14
ENDBRANCH   9  10
BRANCH   5  28
ATOM     28  C18 UNK     1       2.345  37.582 238.579  1.00  0.00     0.194 C 
ATOM     29  O6  UNK     1       3.518  37.428 238.177  1.00  0.00    -0.645 OA
BRANCH  28  30
ATOM     30  O7  UNK     1       2.005  38.400 239.459  1.00  0.00    -0.772 OA
ATOM     31  H18 UNK     1       2.779  38.728 239.903  1.00  0.00     0.167 HD
ENDBRANCH  28  30
ENDBRANCH   5  28
BRANCH   4  32
ATOM     32  C4  UNK     1       1.008  34.964 239.830  1.00  0.00     0.120 C 
BRANCH  32  33
ATOM     33  S2  UNK     1       2.735  34.426 240.129  1.00  0.00    -0.088 SA
BRANCH  33  34
ATOM     34  C5  UNK     1       2.921  32.962 239.184  1.00  0.00     0.164 A 
ATOM     35  N1  UNK     1       3.345  33.012 237.954  1.00  0.00    -0.298 N 
ATOM     36  C6  UNK     1       3.469  31.860 237.207  1.00  0.00     0.317 A 
ATOM     37  H1  UNK     1       3.589  33.912 237.539  1.00  0.00     0.171 HD
ATOM     38  O1  UNK     1       3.877  32.000 236.040  1.00  0.00    -0.262 OA
ATOM     39  C7  UNK     1       3.141  30.622 237.723  1.00  0.00     0.328 A 
ATOM     40  O2  UNK     1       3.248  29.595 237.071  1.00  0.00    -0.261 OA
ATOM     41  N2  UNK     1       2.683  30.566 239.021  1.00  0.00    -0.258 N 
ATOM     42  N3  UNK     1       2.568  31.770 239.772  1.00  0.00    -0.272 N 
ATOM     43  H6  UNK     1       2.434  29.688 239.432  1.00  0.00     0.190 HD
ATOM     44  C8  UNK     1       2.077  31.655 241.152  1.00  0.00     0.180 C 
ENDBRANCH  33  34
ENDBRANCH  32  33
ENDBRANCH   4  32
TORSDOF 10
ENDMDL
MODEL 8
REMARK VINA RESULT:      -6.1      2.740      9.674
REMARK  10 active torsions:
REMARK  status: ('A' for Active; 'I' for Inactive)
REMARK    1  A    between atoms: C3_4  and  C4_5 
REMARK    2  A    between atoms: C4_5  and  S2_6 
REMARK    3  A    between atoms: S2_6  and  C5_7 
REMARK    4  A    between atoms: C9_17  and  C18_37 
REMARK    5  A    between atoms: C11_21  and  N5_22 
REMARK       I    between atoms: N5_22  and  C12_23 
REMARK    6  A    between atoms: C12_23  and  C13_25 
REMARK    7  A    between atoms: C13_25  and  C15_30 
REMARK    8  A    between atoms: N6_26  and  O5_28 
REMARK    9  A    between atoms: C17_33  and  N7_34 
REMARK   10  A    between atoms: C18_37  and  O7_39 
ROOT
ATOM      1  C1  UNK     1       0.182  36.008 235.385  1.00  0.00     0.187 C 
ATOM      2  S1  UNK     1      -0.130  34.318 235.350  1.00  0.00    -0.136 SA
ATOM      3  C2  UNK     1       1.261  33.765 236.351  1.00  0.00     0.113 C 
ATOM      4  C3  UNK     1       1.761  34.749 237.390  1.00  0.00    -0.027 C 
ATOM      5  C9  UNK     1       1.902  36.073 237.166  1.00  0.00     0.116 C 
ATOM      6  N4  UNK     1       1.164  36.646 236.109  1.00  0.00    -0.293 N 
ATOM      7  C10 UNK     1       1.019  37.837 235.370  1.00  0.00     0.251 C 
ATOM      8  O3  UNK     1       1.695  38.839 235.280  1.00  0.00    -0.271 OA
ATOM      9  C11 UNK     1      -0.290  37.311 234.731  1.00  0.00     0.211 C 
ENDROOT
BRANCH   9  10
ATOM     10  N5  UNK     1      -0.513  37.214 233.301  1.00  0.00    -0.340 N 
ATOM     11  C12 UNK     1      -1.153  38.137 232.557  1.00  0.00     0.273 C 
ATOM     12  O4  UNK     1      -1.817  39.053 233.041  1.00  0.00    -0.266 OA
ATOM     13  H11 UNK     1      -0.167  36.401 232.832  1.00  0.00     0.163 HD
BRANCH  11  14
ATOM     14  C13 UNK     1      -1.067  38.053 231.056  1.00  0.00     0.149 C 
ATOM     15  N6  UNK     1      -0.676  36.999 230.431  1.00  0.00    -0.260 N 
ATOM     16  H6  UNK     1      -0.967  36.052 230.674  1.00  0.00     0.194 HD
BRANCH  15  17
ATOM     17  O5  UNK     1       0.201  37.306 229.370  1.00  0.00    -0.285 OA
ATOM     18  C14 UNK     1       0.043  36.357 228.306  1.00  0.00     0.237 C 
ENDBRANCH  15  17
BRANCH  14  19
ATOM     19  C15 UNK     1      -1.663  39.184 230.321  1.00  0.00     0.074 C 
ATOM     20  C16 UNK     1      -2.847  39.157 229.673  1.00  0.00     0.084 C 
ATOM     21  S3  UNK     1      -3.275  40.745 229.156  1.00  0.00    -0.070 SA
ATOM     22  C17 UNK     1      -1.790  41.332 229.857  1.00  0.00     0.121 C 
ATOM     23  N8  UNK     1      -0.979  40.386 230.257  1.00  0.00    -0.339 N 
ATOM     24  H8  UNK     1       0.006  40.515 230.486  1.00  0.00     0.167 HD
BRANCH  22  25
ATOM     25  N7  UNK     1      -1.543  42.655 229.964  1.00  0.00    -0.283 NA
ATOM     26  H16 UNK     1      -1.088  42.978 229.134  1.00  0.00     0.126 HD
ATOM     27  H17 UNK     1      -2.407  43.146 230.082  1.00  0.00     0.126 HD
ENDBRANCH  22  25
ENDBRANCH  14  19
ENDBRANCH  11  14
ENDBRANCH   9  10
BRANCH   5  28
ATOM     28  C18 UNK     1       2.788  37.046 237.936  1.00  0.00     0.194 C 
ATOM     29  O6  UNK     1       3.986  37.143 237.595  1.00  0.00    -0.645 OA
BRANCH  28  30
ATOM     30  O7  UNK     1       2.271  37.683 238.877  1.00  0.00    -0.772 OA
ATOM     31  H18 UNK     1       1.325  37.634 238.811  1.00  0.00     0.167 HD
ENDBRANCH  28  30
ENDBRANCH   5  28
BRANCH   4  32
ATOM     32  C4  UNK     1       2.123  34.006 238.656  1.00  0.00     0.120 C 
BRANCH  32  33
ATOM     33  S2  UNK     1       0.960  34.377 240.024  1.00  0.00    -0.088 SA
BRANCH  33  34
ATOM     34  C5  UNK     1      -0.627  34.367 239.281  1.00  0.00     0.164 A 
ATOM     35  N1  UNK     1      -1.212  35.481 238.945  1.00  0.00    -0.298 N 
ATOM     36  C6  UNK     1      -2.470  35.469 238.381  1.00  0.00     0.317 A 
ATOM     37  H1  UNK     1      -0.736  36.370 239.101  1.00  0.00     0.171 HD
ATOM     38  O1  UNK     1      -2.956  36.578 238.095  1.00  0.00    -0.262 OA
ATOM     39  C7  UNK     1      -3.157  34.292 238.162  1.00  0.00     0.328 A 
ATOM     40  O2  UNK     1      -4.270  34.270 237.662  1.00  0.00    -0.261 OA
ATOM     41  N2  UNK     1      -2.544  33.112 238.524  1.00  0.00    -0.258 N 
ATOM     42  N3  UNK     1      -1.243  33.151 239.102  1.00  0.00    -0.272 N 
ATOM     43  H6  UNK     1      -3.008  32.237 238.383  1.00  0.00     0.190 HD
ATOM     44  C8  UNK     1      -0.634  31.866 239.469  1.00  0.00     0.180 C 
ENDBRANCH  33  34
ENDBRANCH  32  33
ENDBRANCH   4  32
TORSDOF 10
ENDMDL
MODEL 9
REMARK VINA RESULT:      -6.1      2.178      2.807
REMARK  10 active torsions:
REMARK  status: ('A' for Active; 'I' for Inactive)
REMARK    1  A    between atoms: C3_4  and  C4_5 
REMARK    2  A    between atoms: C4_5  and  S2_6 
REMARK    3  A    between atoms: S2_6  and  C5_7 
REMARK    4  A    between atoms: C9_17  and  C18_37 
REMARK    5  A    between atoms: C11_21  and  N5_22 
REMARK       I    between atoms: N5_22  and  C12_23 
REMARK    6  A    between atoms: C12_23  and  C13_25 
REMARK    7  A    between atoms: C13_25  and  C15_30 
REMARK    8  A    between atoms: N6_26  and  O5_28 
REMARK    9  A    between atoms: C17_33  and  N7_34 
REMARK   10  A    between atoms: C18_37  and  O7_39 
ROOT
ATOM      1  C1  UNK     1      -0.771  36.086 234.315  1.00  0.00     0.187 C 
ATOM      2  S1  UNK     1      -1.205  37.747 234.410  1.00  0.00    -0.136 SA
ATOM      3  C2  UNK     1      -1.148  38.143 232.654  1.00  0.00     0.113 C 
ATOM      4  C3  UNK     1      -1.454  36.999 231.707  1.00  0.00    -0.027 C 
ATOM      5  C9  UNK     1      -0.991  35.742 231.872  1.00  0.00     0.116 C 
ATOM      6  N4  UNK     1      -0.585  35.352 233.165  1.00  0.00    -0.293 N 
ATOM      7  C10 UNK     1       0.059  34.311 233.863  1.00  0.00     0.251 C 
ATOM      8  O3  UNK     1       0.716  33.358 233.500  1.00  0.00    -0.271 OA
ATOM      9  C11 UNK     1      -0.383  34.913 235.220  1.00  0.00     0.211 C 
ENDROOT
BRANCH   9  10
ATOM     10  N5  UNK     1       0.531  35.261 236.290  1.00  0.00    -0.340 N 
ATOM     11  C12 UNK     1       1.031  34.392 237.190  1.00  0.00     0.273 C 
ATOM     12  O4  UNK     1       0.591  33.253 237.345  1.00  0.00    -0.266 OA
ATOM     13  H11 UNK     1       0.812  36.218 236.367  1.00  0.00     0.163 HD
BRANCH  11  14
ATOM     14  C13 UNK     1       2.180  34.822 238.063  1.00  0.00     0.149 C 
ATOM     15  N6  UNK     1       3.033  33.999 238.561  1.00  0.00    -0.260 N 
ATOM     16  H6  UNK     1       3.448  33.225 238.042  1.00  0.00     0.194 HD
BRANCH  15  17
ATOM     17  O5  UNK     1       3.329  34.291 239.907  1.00  0.00    -0.285 OA
ATOM     18  C14 UNK     1       3.691  33.093 240.608  1.00  0.00     0.237 C 
ENDBRANCH  15  17
BRANCH  14  19
ATOM     19  C15 UNK     1       2.405  36.277 238.145  1.00  0.00     0.074 C 
ATOM     20  C16 UNK     1       3.377  36.955 237.498  1.00  0.00     0.084 C 
ATOM     21  S3  UNK     1       3.138  38.652 237.682  1.00  0.00    -0.070 SA
ATOM     22  C17 UNK     1       1.725  38.310 238.645  1.00  0.00     0.121 C 
ATOM     23  N8  UNK     1       1.581  37.046 238.950  1.00  0.00    -0.339 N 
ATOM     24  H8  UNK     1       0.957  36.682 239.670  1.00  0.00     0.167 HD
BRANCH  22  25
ATOM     25  N7  UNK     1       0.877  39.293 239.016  1.00  0.00    -0.283 NA
ATOM     26  H16 UNK     1       1.379  40.155 239.093  1.00  0.00     0.126 HD
ATOM     27  H17 UNK     1       0.156  39.388 238.329  1.00  0.00     0.126 HD
ENDBRANCH  22  25
ENDBRANCH  14  19
ENDBRANCH  11  14
ENDBRANCH   9  10
BRANCH   5  28
ATOM     28  C18 UNK     1      -0.850  34.667 230.799  1.00  0.00     0.194 C 
ATOM     29  O6  UNK     1      -1.733  33.786 230.733  1.00  0.00    -0.645 OA
BRANCH  28  30
ATOM     30  O7  UNK     1       0.150  34.718 230.053  1.00  0.00    -0.772 OA
ATOM     31  H18 UNK     1       0.460  35.614 230.000  1.00  0.00     0.167 HD
ENDBRANCH  28  30
ENDBRANCH   5  28
BRANCH   4  32
ATOM     32  C4  UNK     1      -2.286  37.511 230.553  1.00  0.00     0.120 C 
BRANCH  32  33
ATOM     33  S2  UNK     1      -3.293  38.968 231.027  1.00  0.00    -0.088 SA
BRANCH  33  34
ATOM     34  C5  UNK     1      -2.701  40.272 230.017  1.00  0.00     0.164 A 
ATOM     35  N1  UNK     1      -1.701  41.011 230.402  1.00  0.00    -0.298 N 
ATOM     36  C6  UNK     1      -1.253  42.050 229.614  1.00  0.00     0.317 A 
ATOM     37  H1  UNK     1      -1.244  40.820 231.294  1.00  0.00     0.171 HD
ATOM     38  O1  UNK     1      -0.295  42.707 230.060  1.00  0.00    -0.262 OA
ATOM     39  C7  UNK     1      -1.846  42.351 228.405  1.00  0.00     0.328 A 
ATOM     40  O2  UNK     1      -1.457  43.268 227.698  1.00  0.00    -0.261 OA
ATOM     41  N2  UNK     1      -2.911  41.577 227.998  1.00  0.00    -0.258 N 
ATOM     42  N3  UNK     1      -3.352  40.508 228.829  1.00  0.00    -0.272 N 
ATOM     43  H6  UNK     1      -3.369  41.763 227.129  1.00  0.00     0.190 HD
ATOM     44  C8  UNK     1      -4.489  39.711 228.349  1.00  0.00     0.180 C 
ENDBRANCH  33  34
ENDBRANCH  32  33
ENDBRANCH   4  32
TORSDOF 10
ENDMDL
