MODEL 1
REMARK VINA RESULT:      -6.4      0.000      0.000
REMARK  11 active torsions:
REMARK  status: ('A' for Active; 'I' for Inactive)
REMARK    1  A    between atoms: C2_2  and  C3_3 
REMARK    2  A    between atoms: C3_3  and  C4_4 
REMARK    3  A    between atoms: C4_4  and  C5_5 
REMARK    4  A    between atoms: C12_13  and  C13_14 
REMARK    5  A    between atoms: C13_14  and  C14_16 
REMARK    6  A    between atoms: C19_23  and  O3_24 
REMARK    7  A    between atoms: O3_24  and  C20_25 
REMARK    8  A    between atoms: C20_25  and  C21_26 
REMARK    9  A    between atoms: C21_26  and  N1_27 
REMARK   10  A    between atoms: N1_27  and  C22_28 
REMARK   11  A    between atoms: N1_27  and  C24_30 
ROOT
ATOM      1  C14 UNK     1       1.628  36.423 236.492  1.00  0.00     0.018 A 
ATOM      2  C15 UNK     1       0.496  36.277 237.264  1.00  0.00     0.036 A 
ATOM      3  C16 UNK     1      -0.746  36.294 236.666  1.00  0.00     0.042 A 
ATOM      4  I1  UNK     1      -2.371  36.079 237.939  1.00  0.00    -0.042 I 
ATOM      5  C17 UNK     1       1.516  36.557 235.151  1.00  0.00     0.036 A 
ATOM      6  C18 UNK     1       0.323  36.588 234.522  1.00  0.00     0.042 A 
ATOM      7  I2  UNK     1       0.676  36.810 232.524  1.00  0.00    -0.042 I 
ATOM      8  C19 UNK     1      -0.831  36.447 235.282  1.00  0.00     0.101 A 
ENDROOT
BRANCH   1   9
ATOM      9  C13 UNK     1       2.891  36.390 237.003  1.00  0.00     0.195 C 
ATOM     10  O2  UNK     1       3.834  37.025 236.533  1.00  0.00    -0.287 OA
BRANCH   9  11
ATOM     11  C12 UNK     1       3.072  35.409 237.847  1.00  0.00     0.058 A 
ATOM     12  C5  UNK     1       3.060  35.452 239.170  1.00  0.00     0.069 A 
ATOM     13  O1  UNK     1       3.283  34.263 239.584  1.00  0.00    -0.313 OA
ATOM     14  C6  UNK     1       3.395  33.466 238.498  1.00  0.00     0.087 A 
ATOM     15  C7  UNK     1       3.592  32.183 238.355  1.00  0.00     0.038 A 
ATOM     16  C11 UNK     1       3.254  34.184 237.432  1.00  0.00     0.014 A 
ATOM     17  C8  UNK     1       3.676  31.594 237.121  1.00  0.00     0.003 A 
ATOM     18  C9  UNK     1       3.530  32.343 235.988  1.00  0.00     0.001 A 
ATOM     19  C10 UNK     1       3.309  33.681 236.205  1.00  0.00     0.015 A 
BRANCH  12  20
ATOM     20  C4  UNK     1       2.903  36.728 240.027  1.00  0.00     0.066 C 
BRANCH  20  21
ATOM     21  C3  UNK     1       4.128  37.642 240.114  1.00  0.00     0.006 C 
BRANCH  21  22
ATOM     22  C2  UNK     1       3.788  39.009 239.503  1.00  0.00    -0.004 C 
ATOM     23  C1  UNK     1       2.312  39.064 239.116  1.00  0.00     0.005 C 
ENDBRANCH  21  22
ENDBRANCH  20  21
ENDBRANCH  12  20
ENDBRANCH   9  11
ENDBRANCH   1   9
BRANCH   8  24
ATOM     24  O3  UNK     1      -2.052  36.437 234.730  1.00  0.00    -0.347 OA
BRANCH  24  25
ATOM     25  C20 UNK     1      -2.586  35.264 234.137  1.00  0.00     0.206 C 
BRANCH  25  26
ATOM     26  C21 UNK     1      -4.072  35.573 234.098  1.00  0.00     0.299 C 
BRANCH  26  27
ATOM     27  N1  UNK     1      -4.361  36.996 234.227  1.00  0.00     0.089 N 
BRANCH  27  28
ATOM     28  C22 UNK     1      -5.379  37.321 235.259  1.00  0.00     0.268 C 
ATOM     29  C23 UNK     1      -6.558  38.174 234.747  1.00  0.00     0.037 C 
ENDBRANCH  27  28
BRANCH  27  30
ATOM     30  C24 UNK     1      -4.679  37.566 232.905  1.00  0.00     0.268 C 
ATOM     31  C25 UNK     1      -3.683  38.627 232.431  1.00  0.00     0.037 C 
ENDBRANCH  27  30
ENDBRANCH  26  27
ENDBRANCH  25  26
ENDBRANCH  24  25
ENDBRANCH   8  24
TORSDOF 11
ENDMDL
MODEL 2
REMARK VINA RESULT:      -6.2      1.151      1.716
REMARK  11 active torsions:
REMARK  status: ('A' for Active; 'I' for Inactive)
REMARK    1  A    between atoms: C2_2  and  C3_3 
REMARK    2  A    between atoms: C3_3  and  C4_4 
REMARK    3  A    between atoms: C4_4  and  C5_5 
REMARK    4  A    between atoms: C12_13  and  C13_14 
REMARK    5  A    between atoms: C13_14  and  C14_16 
REMARK    6  A    between atoms: C19_23  and  O3_24 
REMARK    7  A    between atoms: O3_24  and  C20_25 
REMARK    8  A    between atoms: C20_25  and  C21_26 
REMARK    9  A    between atoms: C21_26  and  N1_27 
REMARK   10  A    between atoms: N1_27  and  C22_28 
REMARK   11  A    between atoms: N1_27  and  C24_30 
ROOT
ATOM      1  C14 UNK     1       1.541  36.376 236.436  1.00  0.00     0.018 A 
ATOM      2  C15 UNK     1       0.405  36.217 237.200  1.00  0.00     0.036 A 
ATOM      3  C16 UNK     1      -0.832  36.195 236.591  1.00  0.00     0.042 A 
ATOM      4  I1  UNK     1      -2.463  35.964 237.854  1.00  0.00    -0.042 I 
ATOM      5  C17 UNK     1       1.437  36.484 235.092  1.00  0.00     0.036 A 
ATOM      6  C18 UNK     1       0.250  36.476 234.452  1.00  0.00     0.042 A 
ATOM      7  I2  UNK     1       0.616  36.671 232.453  1.00  0.00    -0.042 I 
ATOM      8  C19 UNK     1      -0.908  36.322 235.204  1.00  0.00     0.101 A 
ENDROOT
BRANCH   1   9
ATOM      9  C13 UNK     1       2.799  36.381 236.959  1.00  0.00     0.195 C 
ATOM     10  O2  UNK     1       3.728  37.040 236.493  1.00  0.00    -0.287 OA
BRANCH   9  11
ATOM     11  C12 UNK     1       3.000  35.410 237.810  1.00  0.00     0.058 A 
ATOM     12  C5  UNK     1       2.979  35.461 239.133  1.00  0.00     0.069 A 
ATOM     13  O1  UNK     1       3.230  34.281 239.555  1.00  0.00    -0.313 OA
ATOM     14  C6  UNK     1       3.368  33.480 238.475  1.00  0.00     0.087 A 
ATOM     15  C7  UNK     1       3.599  32.202 238.341  1.00  0.00     0.038 A 
ATOM     16  C11 UNK     1       3.215  34.188 237.403  1.00  0.00     0.014 A 
ATOM     17  C8  UNK     1       3.704  31.608 237.111  1.00  0.00     0.003 A 
ATOM     18  C9  UNK     1       3.547  32.346 235.972  1.00  0.00     0.001 A 
ATOM     19  C10 UNK     1       3.291  33.679 236.180  1.00  0.00     0.015 A 
BRANCH  12  20
ATOM     20  C4  UNK     1       2.785  36.738 239.980  1.00  0.00     0.066 C 
BRANCH  20  21
ATOM     21  C3  UNK     1       4.031  37.596 240.211  1.00  0.00     0.006 C 
BRANCH  21  22
ATOM     22  C2  UNK     1       3.889  38.918 239.443  1.00  0.00    -0.004 C 
ATOM     23  C1  UNK     1       2.433  39.144 239.043  1.00  0.00     0.005 C 
ENDBRANCH  21  22
ENDBRANCH  20  21
ENDBRANCH  12  20
ENDBRANCH   9  11
ENDBRANCH   1   9
BRANCH   8  24
ATOM     24  O3  UNK     1      -2.122  36.273 234.642  1.00  0.00    -0.347 OA
BRANCH  24  25
ATOM     25  C20 UNK     1      -2.757  37.442 234.149  1.00  0.00     0.206 C 
BRANCH  25  26
ATOM     26  C21 UNK     1      -3.567  36.901 232.985  1.00  0.00     0.299 C 
BRANCH  26  27
ATOM     27  N1  UNK     1      -3.108  37.394 231.693  1.00  0.00     0.089 N 
BRANCH  27  28
ATOM     28  C22 UNK     1      -3.191  38.870 231.539  1.00  0.00     0.268 C 
ATOM     29  C23 UNK     1      -1.868  39.543 231.121  1.00  0.00     0.037 C 
ENDBRANCH  27  28
BRANCH  27  30
ATOM     30  C24 UNK     1      -3.784  36.664 230.607  1.00  0.00     0.268 C 
ATOM     31  C25 UNK     1      -4.496  37.569 229.598  1.00  0.00     0.037 C 
ENDBRANCH  27  30
ENDBRANCH  26  27
ENDBRANCH  25  26
ENDBRANCH  24  25
ENDBRANCH   8  24
TORSDOF 11
ENDMDL
MODEL 3
REMARK VINA RESULT:      -6.0      1.743      2.714
REMARK  11 active torsions:
REMARK  status: ('A' for Active; 'I' for Inactive)
REMARK    1  A    between atoms: C2_2  and  C3_3 
REMARK    2  A    between atoms: C3_3  and  C4_4 
REMARK    3  A    between atoms: C4_4  and  C5_5 
REMARK    4  A    between atoms: C12_13  and  C13_14 
REMARK    5  A    between atoms: C13_14  and  C14_16 
REMARK    6  A    between atoms: C19_23  and  O3_24 
REMARK    7  A    between atoms: O3_24  and  C20_25 
REMARK    8  A    between atoms: C20_25  and  C21_26 
REMARK    9  A    between atoms: C21_26  and  N1_27 
REMARK   10  A    between atoms: N1_27  and  C22_28 
REMARK   11  A    between atoms: N1_27  and  C24_30 
ROOT
ATOM      1  C14 UNK     1       1.523  36.371 236.456  1.00  0.00     0.018 A 
ATOM      2  C15 UNK     1       0.397  36.188 237.228  1.00  0.00     0.036 A 
ATOM      3  C16 UNK     1      -0.845  36.151 236.629  1.00  0.00     0.042 A 
ATOM      4  I1  UNK     1      -2.461  35.884 237.903  1.00  0.00    -0.042 I 
ATOM      5  C17 UNK     1       1.407  36.488 235.113  1.00  0.00     0.036 A 
ATOM      6  C18 UNK     1       0.214  36.466 234.483  1.00  0.00     0.042 A 
ATOM      7  I2  UNK     1       0.560  36.684 232.483  1.00  0.00    -0.042 I 
ATOM      8  C19 UNK     1      -0.934  36.288 235.244  1.00  0.00     0.101 A 
ENDROOT
BRANCH   1   9
ATOM      9  C13 UNK     1       2.785  36.391 236.968  1.00  0.00     0.195 C 
ATOM     10  O2  UNK     1       3.702  37.064 236.496  1.00  0.00    -0.287 OA
BRANCH   9  11
ATOM     11  C12 UNK     1       3.007  35.421 237.814  1.00  0.00     0.058 A 
ATOM     12  C5  UNK     1       3.012  35.471 239.137  1.00  0.00     0.069 A 
ATOM     13  O1  UNK     1       3.276  34.291 239.554  1.00  0.00    -0.313 OA
ATOM     14  C6  UNK     1       3.396  33.492 238.471  1.00  0.00     0.087 A 
ATOM     15  C7  UNK     1       3.628  32.214 238.332  1.00  0.00     0.038 A 
ATOM     16  C11 UNK     1       3.219  34.199 237.403  1.00  0.00     0.014 A 
ATOM     17  C8  UNK     1       3.711  31.621 237.100  1.00  0.00     0.003 A 
ATOM     18  C9  UNK     1       3.528  32.359 235.965  1.00  0.00     0.001 A 
ATOM     19  C10 UNK     1       3.272  33.692 236.178  1.00  0.00     0.015 A 
BRANCH  12  20
ATOM     20  C4  UNK     1       2.830  36.747 239.989  1.00  0.00     0.066 C 
BRANCH  20  21
ATOM     21  C3  UNK     1       4.050  37.663 240.110  1.00  0.00     0.006 C 
BRANCH  21  22
ATOM     22  C2  UNK     1       3.749  39.006 239.431  1.00  0.00    -0.004 C 
ATOM     23  C1  UNK     1       2.271  39.091 239.058  1.00  0.00     0.005 C 
ENDBRANCH  21  22
ENDBRANCH  20  21
ENDBRANCH  12  20
ENDBRANCH   9  11
ENDBRANCH   1   9
BRANCH   8  24
ATOM     24  O3  UNK     1      -2.153  36.224 234.691  1.00  0.00    -0.347 OA
BRANCH  24  25
ATOM     25  C20 UNK     1      -2.456  35.285 233.672  1.00  0.00     0.206 C 
BRANCH  25  26
ATOM     26  C21 UNK     1      -2.348  33.964 234.412  1.00  0.00     0.299 C 
BRANCH  26  27
ATOM     27  N1  UNK     1      -1.597  32.957 233.673  1.00  0.00     0.089 N 
BRANCH  27  28
ATOM     28  C22 UNK     1      -2.317  31.671 233.490  1.00  0.00     0.268 C 
ATOM     29  C23 UNK     1      -3.786  31.688 233.960  1.00  0.00     0.037 C 
ENDBRANCH  27  28
BRANCH  27  30
ATOM     30  C24 UNK     1      -0.260  32.788 234.269  1.00  0.00     0.268 C 
ATOM     31  C25 UNK     1      -0.275  32.636 235.793  1.00  0.00     0.037 C 
ENDBRANCH  27  30
ENDBRANCH  26  27
ENDBRANCH  25  26
ENDBRANCH  24  25
ENDBRANCH   8  24
TORSDOF 11
ENDMDL
MODEL 4
REMARK VINA RESULT:      -6.0      3.354      7.410
REMARK  11 active torsions:
REMARK  status: ('A' for Active; 'I' for Inactive)
REMARK    1  A    between atoms: C2_2  and  C3_3 
REMARK    2  A    between atoms: C3_3  and  C4_4 
REMARK    3  A    between atoms: C4_4  and  C5_5 
REMARK    4  A    between atoms: C12_13  and  C13_14 
REMARK    5  A    between atoms: C13_14  and  C14_16 
REMARK    6  A    between atoms: C19_23  and  O3_24 
REMARK    7  A    between atoms: O3_24  and  C20_25 
REMARK    8  A    between atoms: C20_25  and  C21_26 
REMARK    9  A    between atoms: C21_26  and  N1_27 
REMARK   10  A    between atoms: N1_27  and  C22_28 
REMARK   11  A    between atoms: N1_27  and  C24_30 
ROOT
ATOM      1  C14 UNK     1       1.965  36.782 236.300  1.00  0.00     0.018 A 
ATOM      2  C15 UNK     1       2.137  35.445 236.015  1.00  0.00     0.036 A 
ATOM      3  C16 UNK     1       2.777  34.629 236.924  1.00  0.00     0.042 A 
ATOM      4  I1  UNK     1       2.986  32.640 236.369  1.00  0.00    -0.042 I 
ATOM      5  C17 UNK     1       2.401  37.280 237.479  1.00  0.00     0.036 A 
ATOM      6  C18 UNK     1       3.039  36.523 238.396  1.00  0.00     0.042 A 
ATOM      7  I2  UNK     1       3.498  37.720 239.984  1.00  0.00    -0.042 I 
ATOM      8  C19 UNK     1       3.227  35.174 238.126  1.00  0.00     0.101 A 
ENDROOT
BRANCH   1   9
ATOM      9  C13 UNK     1       1.321  37.647 235.467  1.00  0.00     0.195 C 
ATOM     10  O2  UNK     1       1.533  38.859 235.445  1.00  0.00    -0.287 OA
BRANCH   9  11
ATOM     11  C12 UNK     1       0.262  37.122 234.909  1.00  0.00     0.058 A 
ATOM     12  C5  UNK     1      -0.903  36.835 235.468  1.00  0.00     0.069 A 
ATOM     13  O1  UNK     1      -1.643  36.335 234.552  1.00  0.00    -0.313 OA
ATOM     14  C6  UNK     1      -0.935  36.350 233.401  1.00  0.00     0.087 A 
ATOM     15  C7  UNK     1      -1.220  35.989 232.178  1.00  0.00     0.038 A 
ATOM     16  C11 UNK     1       0.237  36.847 233.632  1.00  0.00     0.014 A 
ATOM     17  C8  UNK     1      -0.312  36.099 231.158  1.00  0.00     0.003 A 
ATOM     18  C9  UNK     1       0.929  36.620 231.392  1.00  0.00     0.001 A 
ATOM     19  C10 UNK     1       1.161  36.995 232.693  1.00  0.00     0.015 A 
BRANCH  12  20
ATOM     20  C4  UNK     1      -1.245  36.992 236.966  1.00  0.00     0.066 C 
BRANCH  20  21
ATOM     21  C3  UNK     1      -2.467  36.219 237.468  1.00  0.00     0.006 C 
BRANCH  21  22
ATOM     22  C2  UNK     1      -2.033  35.235 238.564  1.00  0.00    -0.004 C 
ATOM     23  C1  UNK     1      -0.510  35.202 238.673  1.00  0.00     0.005 C 
ENDBRANCH  21  22
ENDBRANCH  20  21
ENDBRANCH  12  20
ENDBRANCH   9  11
ENDBRANCH   1   9
BRANCH   8  24
ATOM     24  O3  UNK     1       3.824  34.349 238.997  1.00  0.00    -0.347 OA
BRANCH  24  25
ATOM     25  C20 UNK     1       3.148  33.875 240.150  1.00  0.00     0.206 C 
BRANCH  25  26
ATOM     26  C21 UNK     1       3.731  32.484 240.314  1.00  0.00     0.299 C 
BRANCH  26  27
ATOM     27  N1  UNK     1       2.712  31.449 240.433  1.00  0.00     0.089 N 
BRANCH  27  28
ATOM     28  C22 UNK     1       2.986  30.227 239.635  1.00  0.00     0.268 C 
ATOM     29  C23 UNK     1       4.447  30.089 239.159  1.00  0.00     0.037 C 
ENDBRANCH  27  28
BRANCH  27  30
ATOM     30  C24 UNK     1       1.381  32.022 240.169  1.00  0.00     0.268 C 
ATOM     31  C25 UNK     1       0.519  31.181 239.223  1.00  0.00     0.037 C 
ENDBRANCH  27  30
ENDBRANCH  26  27
ENDBRANCH  25  26
ENDBRANCH  24  25
ENDBRANCH   8  24
TORSDOF 11
ENDMDL
MODEL 5
REMARK VINA RESULT:      -5.9      0.492      1.864
REMARK  11 active torsions:
REMARK  status: ('A' for Active; 'I' for Inactive)
REMARK    1  A    between atoms: C2_2  and  C3_3 
REMARK    2  A    between atoms: C3_3  and  C4_4 
REMARK    3  A    between atoms: C4_4  and  C5_5 
REMARK    4  A    between atoms: C12_13  and  C13_14 
REMARK    5  A    between atoms: C13_14  and  C14_16 
REMARK    6  A    between atoms: C19_23  and  O3_24 
REMARK    7  A    between atoms: O3_24  and  C20_25 
REMARK    8  A    between atoms: C20_25  and  C21_26 
REMARK    9  A    between atoms: C21_26  and  N1_27 
REMARK   10  A    between atoms: N1_27  and  C22_28 
REMARK   11  A    between atoms: N1_27  and  C24_30 
ROOT
ATOM      1  C14 UNK     1       1.654  36.322 236.255  1.00  0.00     0.018 A 
ATOM      2  C15 UNK     1       1.523  36.507 234.896  1.00  0.00     0.036 A 
ATOM      3  C16 UNK     1       0.271  36.473 234.318  1.00  0.00     0.042 A 
ATOM      4  I1  UNK     1       0.212  36.750 232.261  1.00  0.00    -0.042 I 
ATOM      5  C17 UNK     1       0.552  36.135 237.017  1.00  0.00     0.036 A 
ATOM      6  C18 UNK     1      -0.692  36.087 236.497  1.00  0.00     0.042 A 
ATOM      7  I2  UNK     1      -2.000  35.782 238.033  1.00  0.00    -0.042 I 
ATOM      8  C19 UNK     1      -0.845  36.265 235.128  1.00  0.00     0.101 A 
ENDROOT
BRANCH   1   9
ATOM      9  C13 UNK     1       2.850  36.368 236.904  1.00  0.00     0.195 C 
ATOM     10  O2  UNK     1       3.794  37.073 236.546  1.00  0.00    -0.287 OA
BRANCH   9  11
ATOM     11  C12 UNK     1       3.004  35.390 237.757  1.00  0.00     0.058 A 
ATOM     12  C5  UNK     1       2.937  35.436 239.078  1.00  0.00     0.069 A 
ATOM     13  O1  UNK     1       3.153  34.250 239.504  1.00  0.00    -0.313 OA
ATOM     14  C6  UNK     1       3.317  33.452 238.426  1.00  0.00     0.087 A 
ATOM     15  C7  UNK     1       3.531  32.170 238.294  1.00  0.00     0.038 A 
ATOM     16  C11 UNK     1       3.214  34.166 237.353  1.00  0.00     0.014 A 
ATOM     17  C8  UNK     1       3.672  31.580 237.066  1.00  0.00     0.003 A 
ATOM     18  C9  UNK     1       3.567  32.325 235.926  1.00  0.00     0.001 A 
ATOM     19  C10 UNK     1       3.326  33.662 236.131  1.00  0.00     0.015 A 
BRANCH  12  20
ATOM     20  C4  UNK     1       2.733  36.712 239.925  1.00  0.00     0.066 C 
BRANCH  20  21
ATOM     21  C3  UNK     1       3.972  37.581 240.152  1.00  0.00     0.006 C 
BRANCH  21  22
ATOM     22  C2  UNK     1       3.775  38.941 239.466  1.00  0.00    -0.004 C 
ATOM     23  C1  UNK     1       2.316  39.117 239.051  1.00  0.00     0.005 C 
ENDBRANCH  21  22
ENDBRANCH  20  21
ENDBRANCH  12  20
ENDBRANCH   9  11
ENDBRANCH   1   9
BRANCH   8  24
ATOM     24  O3  UNK     1      -2.048  36.261 234.538  1.00  0.00    -0.347 OA
BRANCH  24  25
ATOM     25  C20 UNK     1      -2.739  35.051 234.274  1.00  0.00     0.206 C 
BRANCH  25  26
ATOM     26  C21 UNK     1      -4.179  35.435 234.561  1.00  0.00     0.299 C 
BRANCH  26  27
ATOM     27  N1  UNK     1      -4.540  36.737 234.013  1.00  0.00     0.089 N 
BRANCH  27  28
ATOM     28  C22 UNK     1      -5.342  37.585 234.934  1.00  0.00     0.268 C 
ATOM     29  C23 UNK     1      -6.867  37.470 234.743  1.00  0.00     0.037 C 
ENDBRANCH  27  28
BRANCH  27  30
ATOM     30  C24 UNK     1      -5.169  36.569 232.692  1.00  0.00     0.268 C 
ATOM     31  C25 UNK     1      -4.289  37.019 231.523  1.00  0.00     0.037 C 
ENDBRANCH  27  30
ENDBRANCH  26  27
ENDBRANCH  25  26
ENDBRANCH  24  25
ENDBRANCH   8  24
TORSDOF 11
ENDMDL
MODEL 6
REMARK VINA RESULT:      -5.8      2.461      4.048
REMARK  11 active torsions:
REMARK  status: ('A' for Active; 'I' for Inactive)
REMARK    1  A    between atoms: C2_2  and  C3_3 
REMARK    2  A    between atoms: C3_3  and  C4_4 
REMARK    3  A    between atoms: C4_4  and  C5_5 
REMARK    4  A    between atoms: C12_13  and  C13_14 
REMARK    5  A    between atoms: C13_14  and  C14_16 
REMARK    6  A    between atoms: C19_23  and  O3_24 
REMARK    7  A    between atoms: O3_24  and  C20_25 
REMARK    8  A    between atoms: C20_25  and  C21_26 
REMARK    9  A    between atoms: C21_26  and  N1_27 
REMARK   10  A    between atoms: N1_27  and  C22_28 
REMARK   11  A    between atoms: N1_27  and  C24_30 
ROOT
ATOM      1  C14 UNK     1      -0.745  36.630 235.495  1.00  0.00     0.018 A 
ATOM      2  C15 UNK     1      -0.017  36.632 234.325  1.00  0.00     0.036 A 
ATOM      3  C16 UNK     1      -0.669  36.719 233.114  1.00  0.00     0.042 A 
ATOM      4  I1  UNK     1       0.540  36.696 231.427  1.00  0.00    -0.042 I 
ATOM      5  C17 UNK     1      -2.092  36.740 235.449  1.00  0.00     0.036 A 
ATOM      6  C18 UNK     1      -2.775  36.819 234.288  1.00  0.00     0.042 A 
ATOM      7  I2  UNK     1      -4.761  36.962 234.740  1.00  0.00    -0.042 I 
ATOM      8  C19 UNK     1      -2.061  36.817 233.097  1.00  0.00     0.101 A 
ENDROOT
BRANCH   1   9
ATOM      9  C13 UNK     1      -0.174  36.575 236.731  1.00  0.00     0.195 C 
ATOM     10  O2  UNK     1      -0.696  37.039 237.744  1.00  0.00    -0.287 OA
BRANCH   9  11
ATOM     11  C12 UNK     1       1.091  36.251 236.693  1.00  0.00     0.058 A 
ATOM     12  C5  UNK     1       2.144  37.053 236.689  1.00  0.00     0.069 A 
ATOM     13  O1  UNK     1       3.181  36.307 236.643  1.00  0.00    -0.313 OA
ATOM     14  C6  UNK     1       2.762  35.022 236.659  1.00  0.00     0.087 A 
ATOM     15  C7  UNK     1       3.397  33.881 236.656  1.00  0.00     0.038 A 
ATOM     16  C11 UNK     1       1.470  35.001 236.698  1.00  0.00     0.014 A 
ATOM     17  C8  UNK     1       2.735  32.682 236.670  1.00  0.00     0.003 A 
ATOM     18  C9  UNK     1       1.370  32.647 236.710  1.00  0.00     0.001 A 
ATOM     19  C10 UNK     1       0.762  33.879 236.726  1.00  0.00     0.015 A 
BRANCH  12  20
ATOM     20  C4  UNK     1       2.098  38.597 236.648  1.00  0.00     0.066 C 
BRANCH  20  21
ATOM     21  C3  UNK     1       2.139  39.313 238.000  1.00  0.00     0.006 C 
BRANCH  21  22
ATOM     22  C2  UNK     1       3.517  39.107 238.645  1.00  0.00    -0.004 C 
ATOM     23  C1  UNK     1       3.361  38.552 240.059  1.00  0.00     0.005 C 
ENDBRANCH  21  22
ENDBRANCH  20  21
ENDBRANCH  12  20
ENDBRANCH   9  11
ENDBRANCH   1   9
BRANCH   8  24
ATOM     24  O3  UNK     1      -2.661  36.923 231.905  1.00  0.00    -0.347 OA
BRANCH  24  25
ATOM     25  C20 UNK     1      -3.249  38.141 231.478  1.00  0.00     0.206 C 
BRANCH  25  26
ATOM     26  C21 UNK     1      -2.938  38.144 229.992  1.00  0.00     0.299 C 
BRANCH  26  27
ATOM     27  N1  UNK     1      -2.795  39.486 229.443  1.00  0.00     0.089 N 
BRANCH  27  28
ATOM     28  C22 UNK     1      -1.867  40.362 230.204  1.00  0.00     0.268 C 
ATOM     29  C23 UNK     1      -0.668  40.885 229.387  1.00  0.00     0.037 C 
ENDBRANCH  27  28
BRANCH  27  30
ATOM     30  C24 UNK     1      -4.123  40.092 229.243  1.00  0.00     0.268 C 
ATOM     31  C25 UNK     1      -4.196  41.051 228.052  1.00  0.00     0.037 C 
ENDBRANCH  27  30
ENDBRANCH  26  27
ENDBRANCH  25  26
ENDBRANCH  24  25
ENDBRANCH   8  24
TORSDOF 11
ENDMDL
MODEL 7
REMARK VINA RESULT:      -5.7      2.868      4.623
REMARK  11 active torsions:
REMARK  status: ('A' for Active; 'I' for Inactive)
REMARK    1  A    between atoms: C2_2  and  C3_3 
REMARK    2  A    between atoms: C3_3  and  C4_4 
REMARK    3  A    between atoms: C4_4  and  C5_5 
REMARK    4  A    between atoms: C12_13  and  C13_14 
REMARK    5  A    between atoms: C13_14  and  C14_16 
REMARK    6  A    between atoms: C19_23  and  O3_24 
REMARK    7  A    between atoms: O3_24  and  C20_25 
REMARK    8  A    between atoms: C20_25  and  C21_26 
REMARK    9  A    between atoms: C21_26  and  N1_27 
REMARK   10  A    between atoms: N1_27  and  C22_28 
REMARK   11  A    between atoms: N1_27  and  C24_30 
ROOT
ATOM      1  C14 UNK     1      -1.241  35.458 234.608  1.00  0.00     0.018 A 
ATOM      2  C15 UNK     1      -0.395  35.549 233.524  1.00  0.00     0.036 A 
ATOM      3  C16 UNK     1      -0.790  36.252 232.405  1.00  0.00     0.042 A 
ATOM      4  I1  UNK     1       0.568  36.300 230.836  1.00  0.00    -0.042 I 
ATOM      5  C17 UNK     1      -2.441  36.080 234.579  1.00  0.00     0.036 A 
ATOM      6  C18 UNK     1      -2.875  36.773 233.505  1.00  0.00     0.042 A 
ATOM      7  I2  UNK     1      -4.727  37.510 233.942  1.00  0.00    -0.042 I 
ATOM      8  C19 UNK     1      -2.040  36.872 232.399  1.00  0.00     0.101 A 
ENDROOT
BRANCH   1   9
ATOM      9  C13 UNK     1      -0.914  34.806 235.759  1.00  0.00     0.195 C 
ATOM     10  O2  UNK     1      -1.745  34.339 236.538  1.00  0.00    -0.287 OA
BRANCH   9  11
ATOM     11  C12 UNK     1       0.335  34.976 236.102  1.00  0.00     0.058 A 
ATOM     12  C5  UNK     1       0.894  36.034 236.669  1.00  0.00     0.069 A 
ATOM     13  O1  UNK     1       2.134  35.763 236.823  1.00  0.00    -0.313 OA
ATOM     14  C6  UNK     1       2.336  34.502 236.379  1.00  0.00     0.087 A 
ATOM     15  C7  UNK     1       3.392  33.735 236.333  1.00  0.00     0.038 A 
ATOM     16  C11 UNK     1       1.216  34.024 235.945  1.00  0.00     0.014 A 
ATOM     17  C8  UNK     1       3.346  32.466 235.822  1.00  0.00     0.003 A 
ATOM     18  C9  UNK     1       2.169  31.951 235.358  1.00  0.00     0.001 A 
ATOM     19  C10 UNK     1       1.093  32.800 235.448  1.00  0.00     0.015 A 
BRANCH  12  20
ATOM     20  C4  UNK     1       0.180  37.367 236.984  1.00  0.00     0.066 C 
BRANCH  20  21
ATOM     21  C3  UNK     1       0.695  38.604 236.243  1.00  0.00     0.006 C 
BRANCH  21  22
ATOM     22  C2  UNK     1       1.178  39.645 237.262  1.00  0.00    -0.004 C 
ATOM     23  C1  UNK     1       0.267  39.648 238.488  1.00  0.00     0.005 C 
ENDBRANCH  21  22
ENDBRANCH  20  21
ENDBRANCH  12  20
ENDBRANCH   9  11
ENDBRANCH   1   9
BRANCH   8  24
ATOM     24  O3  UNK     1      -2.383  37.566 231.306  1.00  0.00    -0.347 OA
BRANCH  24  25
ATOM     25  C20 UNK     1      -2.069  38.943 231.175  1.00  0.00     0.206 C 
BRANCH  25  26
ATOM     26  C21 UNK     1      -2.115  39.140 229.671  1.00  0.00     0.299 C 
BRANCH  26  27
ATOM     27  N1  UNK     1      -2.364  40.523 229.285  1.00  0.00     0.089 N 
BRANCH  27  28
ATOM     28  C22 UNK     1      -1.468  41.511 229.942  1.00  0.00     0.268 C 
ATOM     29  C23 UNK     1      -0.288  41.982 229.069  1.00  0.00     0.037 C 
ENDBRANCH  27  28
BRANCH  27  30
ATOM     30  C24 UNK     1      -3.792  40.843 229.451  1.00  0.00     0.268 C 
ATOM     31  C25 UNK     1      -4.653  40.490 228.236  1.00  0.00     0.037 C 
ENDBRANCH  27  30
ENDBRANCH  26  27
ENDBRANCH  25  26
ENDBRANCH  24  25
ENDBRANCH   8  24
TORSDOF 11
ENDMDL
MODEL 8
REMARK VINA RESULT:      -5.7      2.281      5.141
REMARK  11 active torsions:
REMARK  status: ('A' for Active; 'I' for Inactive)
REMARK    1  A    between atoms: C2_2  and  C3_3 
REMARK    2  A    between atoms: C3_3  and  C4_4 
REMARK    3  A    between atoms: C4_4  and  C5_5 
REMARK    4  A    between atoms: C12_13  and  C13_14 
REMARK    5  A    between atoms: C13_14  and  C14_16 
REMARK    6  A    between atoms: C19_23  and  O3_24 
REMARK    7  A    between atoms: O3_24  and  C20_25 
REMARK    8  A    between atoms: C20_25  and  C21_26 
REMARK    9  A    between atoms: C21_26  and  N1_27 
REMARK   10  A    between atoms: N1_27  and  C22_28 
REMARK   11  A    between atoms: N1_27  and  C24_30 
ROOT
ATOM      1  C14 UNK     1      -0.560  35.691 235.552  1.00  0.00     0.018 A 
ATOM      2  C15 UNK     1       0.109  35.893 234.365  1.00  0.00     0.036 A 
ATOM      3  C16 UNK     1      -0.580  36.344 233.259  1.00  0.00     0.042 A 
ATOM      4  I1  UNK     1       0.539  36.592 231.529  1.00  0.00    -0.042 I 
ATOM      5  C17 UNK     1      -1.882  35.961 235.633  1.00  0.00     0.036 A 
ATOM      6  C18 UNK     1      -2.601  36.396 234.577  1.00  0.00     0.042 A 
ATOM      7  I2  UNK     1      -4.529  36.650 235.196  1.00  0.00    -0.042 I 
ATOM      8  C19 UNK     1      -1.947  36.601 233.370  1.00  0.00     0.101 A 
ENDROOT
BRANCH   1   9
ATOM      9  C13 UNK     1       0.054  35.274 236.695  1.00  0.00     0.195 C 
ATOM     10  O2  UNK     1      -0.514  34.635 237.580  1.00  0.00    -0.287 OA
BRANCH   9  11
ATOM     11  C12 UNK     1       1.206  35.859 236.895  1.00  0.00     0.058 A 
ATOM     12  C5  UNK     1       2.418  35.392 236.642  1.00  0.00     0.069 A 
ATOM     13  O1  UNK     1       3.248  36.297 236.997  1.00  0.00    -0.313 OA
ATOM     14  C6  UNK     1       2.534  37.355 237.441  1.00  0.00     0.087 A 
ATOM     15  C7  UNK     1       2.877  38.534 237.887  1.00  0.00     0.038 A 
ATOM     16  C11 UNK     1       1.274  37.076 237.365  1.00  0.00     0.014 A 
ATOM     17  C8  UNK     1       1.949  39.456 238.292  1.00  0.00     0.003 A 
ATOM     18  C9  UNK     1       0.615  39.171 238.218  1.00  0.00     0.001 A 
ATOM     19  C10 UNK     1       0.319  37.923 237.726  1.00  0.00     0.015 A 
BRANCH  12  20
ATOM     20  C4  UNK     1       2.745  33.978 236.109  1.00  0.00     0.066 C 
BRANCH  20  21
ATOM     21  C3  UNK     1       3.194  32.949 237.149  1.00  0.00     0.006 C 
BRANCH  21  22
ATOM     22  C2  UNK     1       3.242  31.558 236.501  1.00  0.00    -0.004 C 
ATOM     23  C1  UNK     1       2.812  31.640 235.038  1.00  0.00     0.005 C 
ENDBRANCH  21  22
ENDBRANCH  20  21
ENDBRANCH  12  20
ENDBRANCH   9  11
ENDBRANCH   1   9
BRANCH   8  24
ATOM     24  O3  UNK     1      -2.582  37.060 232.283  1.00  0.00    -0.347 OA
BRANCH  24  25
ATOM     25  C20 UNK     1      -2.880  38.438 232.127  1.00  0.00     0.206 C 
BRANCH  25  26
ATOM     26  C21 UNK     1      -3.678  38.448 230.836  1.00  0.00     0.299 C 
BRANCH  26  27
ATOM     27  N1  UNK     1      -3.327  39.558 229.958  1.00  0.00     0.089 N 
BRANCH  27  28
ATOM     28  C22 UNK     1      -3.953  39.493 228.612  1.00  0.00     0.268 C 
ATOM     29  C23 UNK     1      -4.768  40.744 228.226  1.00  0.00     0.037 C 
ENDBRANCH  27  28
BRANCH  27  30
ATOM     30  C24 UNK     1      -1.863  39.713 229.905  1.00  0.00     0.268 C 
ATOM     31  C25 UNK     1      -1.390  41.168 229.938  1.00  0.00     0.037 C 
ENDBRANCH  27  30
ENDBRANCH  26  27
ENDBRANCH  25  26
ENDBRANCH  24  25
ENDBRANCH   8  24
TORSDOF 11
ENDMDL
MODEL 9
REMARK VINA RESULT:      -5.7      2.161      4.303
REMARK  11 active torsions:
REMARK  status: ('A' for Active; 'I' for Inactive)
REMARK    1  A    between atoms: C2_2  and  C3_3 
REMARK    2  A    between atoms: C3_3  and  C4_4 
REMARK    3  A    between atoms: C4_4  and  C5_5 
REMARK    4  A    between atoms: C12_13  and  C13_14 
REMARK    5  A    between atoms: C13_14  and  C14_16 
REMARK    6  A    between atoms: C19_23  and  O3_24 
REMARK    7  A    between atoms: O3_24  and  C20_25 
REMARK    8  A    between atoms: C20_25  and  C21_26 
REMARK    9  A    between atoms: C21_26  and  N1_27 
REMARK   10  A    between atoms: N1_27  and  C22_28 
REMARK   11  A    between atoms: N1_27  and  C24_30 
ROOT
ATOM      1  C14 UNK     1       0.997  35.182 236.197  1.00  0.00     0.018 A 
ATOM      2  C15 UNK     1       0.003  35.448 237.115  1.00  0.00     0.036 A 
ATOM      3  C16 UNK     1      -1.276  34.984 236.892  1.00  0.00     0.042 A 
ATOM      4  I1  UNK     1      -2.682  35.465 238.341  1.00  0.00    -0.042 I 
ATOM      5  C17 UNK     1       0.717  34.446 235.098  1.00  0.00     0.036 A 
ATOM      6  C18 UNK     1      -0.520  33.977 234.833  1.00  0.00     0.042 A 
ATOM      7  I2  UNK     1      -0.433  32.942 233.076  1.00  0.00    -0.042 I 
ATOM      8  C19 UNK     1      -1.537  34.238 235.743  1.00  0.00     0.101 A 
ENDROOT
BRANCH   1   9
ATOM      9  C13 UNK     1       2.289  35.582 236.358  1.00  0.00     0.195 C 
ATOM     10  O2  UNK     1       3.229  34.803 236.517  1.00  0.00    -0.287 OA
BRANCH   9  11
ATOM     11  C12 UNK     1       2.399  36.857 236.618  1.00  0.00     0.058 A 
ATOM     12  C5  UNK     1       2.104  37.883 235.834  1.00  0.00     0.069 A 
ATOM     13  O1  UNK     1       2.369  38.945 236.494  1.00  0.00    -0.313 OA
ATOM     14  C6  UNK     1       2.796  38.569 237.720  1.00  0.00     0.087 A 
ATOM     15  C7  UNK     1       3.164  39.242 238.777  1.00  0.00     0.038 A 
ATOM     16  C11 UNK     1       2.802  37.278 237.787  1.00  0.00     0.014 A 
ATOM     17  C8  UNK     1       3.571  38.621 239.928  1.00  0.00     0.003 A 
ATOM     18  C9  UNK     1       3.583  37.258 240.009  1.00  0.00     0.001 A 
ATOM     19  C10 UNK     1       3.171  36.609 238.871  1.00  0.00     0.015 A 
BRANCH  12  20
ATOM     20  C4  UNK     1       1.626  37.786 234.368  1.00  0.00     0.066 C 
BRANCH  20  21
ATOM     21  C3  UNK     1       0.123  37.946 234.132  1.00  0.00     0.006 C 
BRANCH  21  22
ATOM     22  C2  UNK     1      -0.261  37.271 232.807  1.00  0.00    -0.004 C 
ATOM     23  C1  UNK     1       0.984  36.723 232.113  1.00  0.00     0.005 C 
ENDBRANCH  21  22
ENDBRANCH  20  21
ENDBRANCH  12  20
ENDBRANCH   9  11
ENDBRANCH   1   9
BRANCH   8  24
ATOM     24  O3  UNK     1      -2.784  33.783 235.568  1.00  0.00    -0.347 OA
BRANCH  24  25
ATOM     25  C20 UNK     1      -3.579  34.204 234.471  1.00  0.00     0.206 C 
BRANCH  25  26
ATOM     26  C21 UNK     1      -4.525  35.195 235.124  1.00  0.00     0.299 C 
BRANCH  26  27
ATOM     27  N1  UNK     1      -5.660  35.542 234.278  1.00  0.00     0.089 N 
BRANCH  27  28
ATOM     28  C22 UNK     1      -5.485  36.800 233.507  1.00  0.00     0.268 C 
ATOM     29  C23 UNK     1      -4.364  37.720 234.030  1.00  0.00     0.037 C 
ENDBRANCH  27  28
BRANCH  27  30
ATOM     30  C24 UNK     1      -6.903  35.520 235.069  1.00  0.00     0.268 C 
ATOM     31  C25 UNK     1      -7.782  36.759 234.879  1.00  0.00     0.037 C 
ENDBRANCH  27  30
ENDBRANCH  26  27
ENDBRANCH  25  26
ENDBRANCH  24  25
ENDBRANCH   8  24
TORSDOF 11
ENDMDL
