MODEL 1
REMARK VINA RESULT:      -7.5      0.000      0.000
REMARK  6 active torsions:
REMARK  status: ('A' for Active; 'I' for Inactive)
REMARK    1  A    between atoms: C11_9  and  C3_3 
REMARK    2  A    between atoms: C11_9  and  C12_10 
REMARK    3  A    between atoms: C12_10  and  N20_14 
REMARK    4  A    between atoms: C12_10  and  C15_11 
REMARK    5  A    between atoms: C15_11  and  C16_12 
REMARK       I    between atoms: C16_12  and  N19_13 
REMARK    6  A    between atoms: C39_24  and  C42_29 
ROOT
HETATM    1  C16 715  1090      -3.727  41.583 226.953  1.00 20.00     0.202 C 
HETATM    2  N19 715  1090      -4.058  40.956 228.205  1.00 20.00    -0.245 NA
HETATM    3  O22 715  1090      -3.885  41.049 225.839  1.00 20.00    -0.280 OA
HETATM    4  C25 715  1090      -3.057  41.377 229.213  1.00 20.00     0.119 C 
HETATM    5  C26 715  1090      -2.053  40.336 229.667  1.00 20.00     0.147 C 
HETATM    6  N27 715  1090      -2.653  38.974 229.788  1.00 20.00    -0.315 N 
HETATM    7  C28 715  1090      -3.691  38.485 229.045  1.00 20.00     0.113 A 
HETATM    8  C29 715  1090      -4.294  39.431 227.986  1.00 20.00     0.176 C 
HETATM    9  C39 715  1090      -2.348  37.934 230.586  1.00 20.00     0.209 A 
HETATM   10  N40 715  1090      -3.177  36.907 230.319  1.00 20.00    -0.280 N 
ATOM     11  H40 715  1090      -3.162  36.001 230.786  1.00  0.00     0.188 HD
HETATM   12  N41 715  1090      -3.975  37.238 229.400  1.00 20.00    -0.286 N 
ATOM     13  H41 715  1090      -4.708  36.652 229.001  1.00  0.00     0.188 HD
ENDROOT
BRANCH   1  14
HETATM   14  C15 715  1090      -3.193  43.080 227.023  1.00 20.00     0.129 C 
BRANCH  14  15
HETATM   15  C12 715  1090      -1.894  43.401 226.326  1.00 20.00     0.196 C 
BRANCH  15  16
HETATM   16  C11 715  1090      -0.835  42.427 226.879  1.00 20.00     0.075 C 
BRANCH  16  17
HETATM   17  C3  715  1090       0.266  43.133 227.609  1.00 20.00    -0.015 A 
HETATM   18  C2  715  1090       1.382  42.352 228.089  1.00 20.00     0.125 A 
HETATM   19  C1  715  1090       2.483  42.929 228.788  1.00 20.00     0.088 A 
HETATM   20  F10 715  1090       1.394  41.042 227.887  1.00 20.00    -0.205 F 
HETATM   21  C6  715  1090       2.463  44.331 229.001  1.00 20.00     0.157 A 
HETATM   22  C5  715  1090       1.381  45.129 228.546  1.00 20.00     0.155 A 
HETATM   23  F46 715  1090       3.459  44.882 229.635  1.00 20.00    -0.203 F 
HETATM   24  C4  715  1090       0.275  44.550 227.842  1.00 20.00     0.055 A 
HETATM   25  F9  715  1090       1.392  46.421 228.754  1.00 20.00    -0.203 F 
ENDBRANCH  16  17
ENDBRANCH  15  16
BRANCH  15  26
HETATM   26  N20 715  1090      -2.034  43.195 224.884  1.00 20.00    -0.074 N 
ATOM     27 3H20 715  1090      -2.362  42.256 224.658  1.00  0.00     0.274 HD
ATOM     28 2H20 715  1090      -2.817  43.720 224.493  1.00  0.00     0.274 HD
ATOM     29 1H20 715  1090      -1.151  43.418 224.425  1.00  0.00     0.274 HD
ENDBRANCH  15  26
ENDBRANCH  14  15
ENDBRANCH   1  14
BRANCH   9  30
HETATM   30  C42 715  1090      -1.242  37.885 231.646  1.00 20.00     0.450 C 
HETATM   31  F45 715  1090      -1.330  36.740 232.332  1.00 20.00    -0.163 F 
HETATM   32  F44 715  1090      -0.086  37.973 230.999  1.00 20.00    -0.163 F 
HETATM   33  F43 715  1090      -1.411  38.901 232.448  1.00 20.00    -0.163 F 
ENDBRANCH   9  30
TORSDOF 6
ENDMDL
MODEL 2
REMARK VINA RESULT:      -7.2      2.131      6.914
REMARK  6 active torsions:
REMARK  status: ('A' for Active; 'I' for Inactive)
REMARK    1  A    between atoms: C11_9  and  C3_3 
REMARK    2  A    between atoms: C11_9  and  C12_10 
REMARK    3  A    between atoms: C12_10  and  N20_14 
REMARK    4  A    between atoms: C12_10  and  C15_11 
REMARK    5  A    between atoms: C15_11  and  C16_12 
REMARK       I    between atoms: C16_12  and  N19_13 
REMARK    6  A    between atoms: C39_24  and  C42_29 
ROOT
HETATM    1  C16 715  1090      -3.659  40.368 229.439  1.00 20.00     0.202 C 
HETATM    2  N19 715  1090      -2.427  40.583 228.727  1.00 20.00    -0.245 NA
HETATM    3  O22 715  1090      -4.746  40.894 229.131  1.00 20.00    -0.280 OA
HETATM    4  C25 715  1090      -1.318  40.584 229.711  1.00 20.00     0.119 C 
HETATM    5  C26 715  1090      -0.658  41.916 230.006  1.00 20.00     0.147 C 
HETATM    6  N27 715  1090      -0.531  42.776 228.792  1.00 20.00    -0.315 N 
HETATM    7  C28 715  1090      -1.379  42.781 227.719  1.00 20.00     0.113 A 
HETATM    8  C29 715  1090      -2.574  41.806 227.773  1.00 20.00     0.176 C 
HETATM    9  C39 715  1090       0.370  43.718 228.457  1.00 20.00     0.209 A 
HETATM   10  N40 715  1090       0.058  44.227 227.251  1.00 20.00    -0.280 N 
ATOM     11  H40 715  1090       0.584  44.953 226.764  1.00  0.00     0.188 HD
HETATM   12  N41 715  1090      -0.984  43.667 226.814  1.00 20.00    -0.286 N 
ATOM     13  H41 715  1090      -1.443  43.861 225.924  1.00  0.00     0.188 HD
ENDROOT
BRANCH   1  14
HETATM   14  C15 715  1090      -3.616  39.335 230.648  1.00 20.00     0.129 C 
BRANCH  14  15
HETATM   15  C12 715  1090      -3.587  37.863 230.319  1.00 20.00     0.196 C 
BRANCH  15  16
HETATM   16  C11 715  1090      -3.422  37.107 231.653  1.00 20.00     0.075 C 
BRANCH  16  17
HETATM   17  C3  715  1090      -2.045  37.249 232.225  1.00 20.00    -0.015 A 
HETATM   18  C2  715  1090      -1.911  37.743 233.575  1.00 20.00     0.125 A 
HETATM   19  C1  715  1090      -0.646  37.908 234.214  1.00 20.00     0.088 A 
HETATM   20  F10 715  1090      -2.998  38.071 234.260  1.00 20.00    -0.205 F 
HETATM   21  C6  715  1090       0.513  37.557 233.475  1.00 20.00     0.157 A 
HETATM   22  C5  715  1090       0.418  37.070 232.145  1.00 20.00     0.155 A 
HETATM   23  F46 715  1090       1.680  37.696 234.038  1.00 20.00    -0.203 F 
HETATM   24  C4  715  1090      -0.853  36.904 231.504  1.00 20.00     0.055 A 
HETATM   25  F9  715  1090       1.504  36.751 231.490  1.00 20.00    -0.203 F 
ENDBRANCH  16  17
ENDBRANCH  15  16
BRANCH  15  26
HETATM   26  N20 715  1090      -4.847  37.464 229.691  1.00 20.00    -0.074 N 
ATOM     27 3H20 715  1090      -5.208  36.587 230.069  1.00  0.00     0.274 HD
ATOM     28 2H20 715  1090      -5.623  38.068 229.963  1.00  0.00     0.274 HD
ATOM     29 1H20 715  1090      -4.722  37.428 228.679  1.00  0.00     0.274 HD
ENDBRANCH  15  26
ENDBRANCH  14  15
ENDBRANCH   1  14
BRANCH   9  30
HETATM   30  C42 715  1090       1.576  44.169 229.289  1.00 20.00     0.450 C 
HETATM   31  F45 715  1090       1.159  44.602 230.484  1.00 20.00    -0.163 F 
HETATM   32  F44 715  1090       2.376  43.116 229.409  1.00 20.00    -0.163 F 
HETATM   33  F43 715  1090       2.168  45.138 228.644  1.00 20.00    -0.163 F 
ENDBRANCH   9  30
TORSDOF 6
ENDMDL
MODEL 3
REMARK VINA RESULT:      -7.1      5.433      7.444
REMARK  6 active torsions:
REMARK  status: ('A' for Active; 'I' for Inactive)
REMARK    1  A    between atoms: C11_9  and  C3_3 
REMARK    2  A    between atoms: C11_9  and  C12_10 
REMARK    3  A    between atoms: C12_10  and  N20_14 
REMARK    4  A    between atoms: C12_10  and  C15_11 
REMARK    5  A    between atoms: C15_11  and  C16_12 
REMARK       I    between atoms: C16_12  and  N19_13 
REMARK    6  A    between atoms: C39_24  and  C42_29 
ROOT
HETATM    1  C16 715  1090      -1.314  37.130 233.899  1.00 20.00     0.202 C 
HETATM    2  N19 715  1090      -0.909  37.799 235.107  1.00 20.00    -0.245 NA
HETATM    3  O22 715  1090      -1.916  36.040 233.871  1.00 20.00    -0.280 OA
HETATM    4  C25 715  1090       0.386  38.472 234.852  1.00 20.00     0.119 C 
HETATM    5  C26 715  1090       1.616  37.876 235.507  1.00 20.00     0.147 C 
HETATM    6  N27 715  1090       1.342  37.360 236.881  1.00 20.00    -0.315 N 
HETATM    7  C28 715  1090       0.153  36.856 237.327  1.00 20.00     0.113 A 
HETATM    8  C29 715  1090      -1.011  36.818 236.314  1.00 20.00     0.176 C 
HETATM    9  C39 715  1090       2.134  37.245 237.964  1.00 20.00     0.209 A 
HETATM   10  N40 715  1090       1.429  36.712 238.978  1.00 20.00    -0.280 N 
ATOM     11  H40 715  1090       1.792  36.524 239.913  1.00  0.00     0.188 HD
HETATM   12  N41 715  1090       0.249  36.481 238.596  1.00 20.00    -0.286 N 
ATOM     13  H41 715  1090      -0.498  36.077 239.162  1.00  0.00     0.188 HD
ENDROOT
BRANCH   1  14
HETATM   14  C15 715  1090      -1.024  37.887 232.531  1.00 20.00     0.129 C 
BRANCH  14  15
HETATM   15  C12 715  1090      -1.932  39.029 232.147  1.00 20.00     0.196 C 
BRANCH  15  16
HETATM   16  C11 715  1090      -2.289  38.840 230.660  1.00 20.00     0.075 C 
BRANCH  16  17
HETATM   17  C3  715  1090      -1.972  40.050 229.836  1.00 20.00    -0.015 A 
HETATM   18  C2  715  1090      -3.062  40.754 229.203  1.00 20.00     0.125 A 
HETATM   19  C1  715  1090      -2.867  41.921 228.406  1.00 20.00     0.088 A 
HETATM   20  F10 715  1090      -4.301  40.305 229.352  1.00 20.00    -0.205 F 
HETATM   21  C6  715  1090      -1.540  42.395 228.250  1.00 20.00     0.157 A 
HETATM   22  C5  715  1090      -0.444  41.726 228.857  1.00 20.00     0.155 A 
HETATM   23  F46 715  1090      -1.336  43.460 227.529  1.00 20.00    -0.203 F 
HETATM   24  C4  715  1090      -0.640  40.555 229.659  1.00 20.00     0.055 A 
HETATM   25  F9  715  1090       0.770  42.189 228.698  1.00 20.00    -0.203 F 
ENDBRANCH  16  17
ENDBRANCH  15  16
BRANCH  15  26
HETATM   26  N20 715  1090      -3.157  38.986 232.947  1.00 20.00    -0.074 N 
ATOM     27 3H20 715  1090      -3.544  38.043 233.012  1.00  0.00     0.274 HD
ATOM     28 2H20 715  1090      -2.976  39.135 233.940  1.00  0.00     0.274 HD
ATOM     29 1H20 715  1090      -3.829  39.655 232.572  1.00  0.00     0.274 HD
ENDBRANCH  15  26
ENDBRANCH  14  15
ENDBRANCH   1  14
BRANCH   9  30
HETATM   30  C42 715  1090       3.609  37.648 238.067  1.00 20.00     0.450 C 
HETATM   31  F45 715  1090       4.075  37.332 239.281  1.00 20.00    -0.163 F 
HETATM   32  F44 715  1090       4.256  36.986 237.114  1.00 20.00    -0.163 F 
HETATM   33  F43 715  1090       3.687  38.937 237.879  1.00 20.00    -0.163 F 
ENDBRANCH   9  30
TORSDOF 6
ENDMDL
MODEL 4
REMARK VINA RESULT:      -6.8      6.334      8.777
REMARK  6 active torsions:
REMARK  status: ('A' for Active; 'I' for Inactive)
REMARK    1  A    between atoms: C11_9  and  C3_3 
REMARK    2  A    between atoms: C11_9  and  C12_10 
REMARK    3  A    between atoms: C12_10  and  N20_14 
REMARK    4  A    between atoms: C12_10  and  C15_11 
REMARK    5  A    between atoms: C15_11  and  C16_12 
REMARK       I    between atoms: C16_12  and  N19_13 
REMARK    6  A    between atoms: C39_24  and  C42_29 
ROOT
HETATM    1  C16 715  1090       0.398  36.408 234.492  1.00 20.00     0.202 C 
HETATM    2  N19 715  1090       0.234  37.060 235.765  1.00 20.00    -0.245 NA
HETATM    3  O22 715  1090       0.379  35.173 234.332  1.00 20.00    -0.280 OA
HETATM    4  C25 715  1090       1.097  38.264 235.782  1.00 20.00     0.119 C 
HETATM    5  C26 715  1090       2.330  38.219 236.663  1.00 20.00     0.147 C 
HETATM    6  N27 715  1090       2.091  37.497 237.949  1.00 20.00    -0.315 N 
HETATM    7  C28 715  1090       1.209  36.471 238.142  1.00 20.00     0.113 A 
HETATM    8  C29 715  1090       0.388  36.020 236.915  1.00 20.00     0.176 C 
HETATM    9  C39 715  1090       2.647  37.639 239.167  1.00 20.00     0.209 A 
HETATM   10  N40 715  1090       2.102  36.746 240.013  1.00 20.00    -0.280 N 
ATOM     11  H40 715  1090       2.344  36.645 240.999  1.00  0.00     0.188 HD
HETATM   12  N41 715  1090       1.247  36.051 239.400  1.00 20.00    -0.286 N 
ATOM     13  H41 715  1090       0.684  35.300 239.799  1.00  0.00     0.188 HD
ENDROOT
BRANCH   1  14
HETATM   14  C15 715  1090       0.539  37.351 233.219  1.00 20.00     0.129 C 
BRANCH  14  15
HETATM   15  C12 715  1090      -0.723  37.902 232.603  1.00 20.00     0.196 C 
BRANCH  15  16
HETATM   16  C11 715  1090      -0.574  37.768 231.075  1.00 20.00     0.075 C 
BRANCH  16  17
HETATM   17  C3  715  1090      -1.484  38.694 230.328  1.00 20.00    -0.015 A 
HETATM   18  C2  715  1090      -2.595  38.126 229.602  1.00 20.00     0.125 A 
HETATM   19  C1  715  1090      -3.523  38.921 228.866  1.00 20.00     0.088 A 
HETATM   20  F10 715  1090      -2.770  36.812 229.602  1.00 20.00    -0.205 F 
HETATM   21  C6  715  1090      -3.330  40.327 228.869  1.00 20.00     0.157 A 
HETATM   22  C5  715  1090      -2.246  40.919 229.570  1.00 20.00     0.155 A 
HETATM   23  F46 715  1090      -4.165  41.075 228.206  1.00 20.00    -0.203 F 
HETATM   24  C4  715  1090      -1.315  40.120 230.310  1.00 20.00     0.055 A 
HETATM   25  F9  715  1090      -2.096  42.218 229.557  1.00 20.00    -0.203 F 
ENDBRANCH  16  17
ENDBRANCH  15  16
BRANCH  15  26
HETATM   26  N20 715  1090      -1.879  37.121 233.046  1.00 20.00    -0.074 N 
ATOM     27 3H20 715  1090      -2.763  37.533 232.744  1.00  0.00     0.274 HD
ATOM     28 2H20 715  1090      -1.958  36.232 232.552  1.00  0.00     0.274 HD
ATOM     29 1H20 715  1090      -1.836  36.999 234.058  1.00  0.00     0.274 HD
ENDBRANCH  15  26
ENDBRANCH  14  15
ENDBRANCH   1  14
BRANCH   9  30
HETATM   30  C42 715  1090       3.729  38.647 239.568  1.00 20.00     0.450 C 
HETATM   31  F45 715  1090       3.739  39.664 238.698  1.00 20.00    -0.163 F 
HETATM   32  F44 715  1090       3.432  39.063 240.794  1.00 20.00    -0.163 F 
HETATM   33  F43 715  1090       4.879  38.030 239.547  1.00 20.00    -0.163 F 
ENDBRANCH   9  30
TORSDOF 6
ENDMDL
MODEL 5
REMARK VINA RESULT:      -6.8      3.894      7.772
REMARK  6 active torsions:
REMARK  status: ('A' for Active; 'I' for Inactive)
REMARK    1  A    between atoms: C11_9  and  C3_3 
REMARK    2  A    between atoms: C11_9  and  C12_10 
REMARK    3  A    between atoms: C12_10  and  N20_14 
REMARK    4  A    between atoms: C12_10  and  C15_11 
REMARK    5  A    between atoms: C15_11  and  C16_12 
REMARK       I    between atoms: C16_12  and  N19_13 
REMARK    6  A    between atoms: C39_24  and  C42_29 
ROOT
HETATM    1  C16 715  1090      -2.911  37.797 231.732  1.00 20.00     0.202 C 
HETATM    2  N19 715  1090      -2.714  38.227 230.373  1.00 20.00    -0.245 NA
HETATM    3  O22 715  1090      -3.965  37.968 232.373  1.00 20.00    -0.280 OA
HETATM    4  C25 715  1090      -1.304  38.661 230.224  1.00 20.00     0.119 C 
HETATM    5  C26 715  1090      -1.050  40.148 230.077  1.00 20.00     0.147 C 
HETATM    6  N27 715  1090      -2.093  40.830 229.255  1.00 20.00    -0.315 N 
HETATM    7  C28 715  1090      -3.405  40.459 229.153  1.00 20.00     0.113 A 
HETATM    8  C29 715  1090      -3.842  39.220 229.963  1.00 20.00     0.176 C 
HETATM    9  C39 715  1090      -2.035  41.920 228.467  1.00 20.00     0.209 A 
HETATM   10  N40 715  1090      -3.249  42.152 227.934  1.00 20.00    -0.280 N 
ATOM     11  H40 715  1090      -3.476  42.915 227.297  1.00  0.00     0.188 HD
HETATM   12  N41 715  1090      -4.063  41.280 228.345  1.00 20.00    -0.286 N 
ATOM     13  H41 715  1090      -5.051  41.218 228.100  1.00  0.00     0.188 HD
ENDROOT
BRANCH   1  14
HETATM   14  C15 715  1090      -1.716  36.994 232.408  1.00 20.00     0.129 C 
BRANCH  14  15
HETATM   15  C12 715  1090      -1.066  37.590 233.632  1.00 20.00     0.196 C 
BRANCH  15  16
HETATM   16  C11 715  1090       0.458  37.512 233.415  1.00 20.00     0.075 C 
BRANCH  16  17
HETATM   17  C3  715  1090       1.205  37.257 234.689  1.00 20.00    -0.015 A 
HETATM   18  C2  715  1090       1.363  35.891 235.128  1.00 20.00     0.125 A 
HETATM   19  C1  715  1090       2.063  35.541 236.322  1.00 20.00     0.088 A 
HETATM   20  F10 715  1090       0.835  34.910 234.411  1.00 20.00    -0.205 F 
HETATM   21  C6  715  1090       2.625  36.596 237.086  1.00 20.00     0.157 A 
HETATM   22  C5  715  1090       2.486  37.950 236.683  1.00 20.00     0.155 A 
HETATM   23  F46 715  1090       3.271  36.302 238.178  1.00 20.00    -0.203 F 
HETATM   24  C4  715  1090       1.785  38.302 235.484  1.00 20.00     0.055 A 
HETATM   25  F9  715  1090       3.019  38.902 237.407  1.00 20.00    -0.203 F 
ENDBRANCH  16  17
ENDBRANCH  15  16
BRANCH  15  26
HETATM   26  N20 715  1090      -1.462  38.991 233.778  1.00 20.00    -0.074 N 
ATOM     27 3H20 715  1090      -2.323  39.096 234.316  1.00  0.00     0.274 HD
ATOM     28 2H20 715  1090      -0.839  39.507 234.399  1.00  0.00     0.274 HD
ATOM     29 1H20 715  1090      -1.529  39.420 232.854  1.00  0.00     0.274 HD
ENDBRANCH  15  26
ENDBRANCH  14  15
ENDBRANCH   1  14
BRANCH   9  30
HETATM   30  C42 715  1090      -0.801  42.786 228.191  1.00 20.00     0.450 C 
HETATM   31  F45 715  1090      -1.109  43.731 227.296  1.00 20.00    -0.163 F 
HETATM   32  F44 715  1090      -0.438  43.319 229.351  1.00 20.00    -0.163 F 
HETATM   33  F43 715  1090       0.135  42.009 227.716  1.00 20.00    -0.163 F 
ENDBRANCH   9  30
TORSDOF 6
ENDMDL
MODEL 6
REMARK VINA RESULT:      -6.7      5.858      8.460
REMARK  6 active torsions:
REMARK  status: ('A' for Active; 'I' for Inactive)
REMARK    1  A    between atoms: C11_9  and  C3_3 
REMARK    2  A    between atoms: C11_9  and  C12_10 
REMARK    3  A    between atoms: C12_10  and  N20_14 
REMARK    4  A    between atoms: C12_10  and  C15_11 
REMARK    5  A    between atoms: C15_11  and  C16_12 
REMARK       I    between atoms: C16_12  and  N19_13 
REMARK    6  A    between atoms: C39_24  and  C42_29 
ROOT
HETATM    1  C16 715  1090       0.359  35.481 232.819  1.00 20.00     0.202 C 
HETATM    2  N19 715  1090      -0.299  36.315 233.790  1.00 20.00    -0.245 NA
HETATM    3  O22 715  1090       0.575  34.264 232.973  1.00 20.00    -0.280 OA
HETATM    4  C25 715  1090       0.326  37.658 233.747  1.00 20.00     0.119 C 
HETATM    5  C26 715  1090       1.202  38.051 234.920  1.00 20.00     0.147 C 
HETATM    6  N27 715  1090       0.672  37.556 236.225  1.00 20.00    -0.315 N 
HETATM    7  C28 715  1090      -0.064  36.419 236.413  1.00 20.00     0.113 A 
HETATM    8  C29 715  1090      -0.372  35.574 235.159  1.00 20.00     0.176 C 
HETATM    9  C39 715  1090       0.779  38.046 237.474  1.00 20.00     0.209 A 
HETATM   10  N40 715  1090       0.128  37.236 238.330  1.00 20.00    -0.280 N 
ATOM     11  H40 715  1090       0.052  37.381 239.336  1.00  0.00     0.188 HD
HETATM   12  N41 715  1090      -0.373  36.267 237.695  1.00 20.00    -0.286 N 
ATOM     13  H41 715  1090      -0.917  35.503 238.095  1.00  0.00     0.188 HD
ENDROOT
BRANCH   1  14
HETATM   14  C15 715  1090       0.762  36.169 231.442  1.00 20.00     0.129 C 
BRANCH  14  15
HETATM   15  C12 715  1090       0.050  35.720 230.191  1.00 20.00     0.196 C 
BRANCH  15  16
HETATM   16  C11 715  1090      -0.812  36.906 229.714  1.00 20.00     0.075 C 
BRANCH  16  17
HETATM   17  C3  715  1090      -1.903  37.247 230.682  1.00 20.00    -0.015 A 
HETATM   18  C2  715  1090      -1.999  38.608 231.154  1.00 20.00     0.125 A 
HETATM   19  C1  715  1090      -3.006  39.037 232.070  1.00 20.00     0.088 A 
HETATM   20  F10 715  1090      -1.119  39.507 230.736  1.00 20.00    -0.205 F 
HETATM   21  C6  715  1090      -3.944  38.070 232.514  1.00 20.00     0.157 A 
HETATM   22  C5  715  1090      -3.877  36.723 232.072  1.00 20.00     0.155 A 
HETATM   23  F46 715  1090      -4.874  38.438 233.349  1.00 20.00    -0.203 F 
HETATM   24  C4  715  1090      -2.867  36.292 231.151  1.00 20.00     0.055 A 
HETATM   25  F9  715  1090      -4.759  35.854 232.496  1.00 20.00    -0.203 F 
ENDBRANCH  16  17
ENDBRANCH  15  16
BRANCH  15  26
HETATM   26  N20 715  1090       1.024  35.382 229.153  1.00 20.00    -0.074 N 
ATOM     27 3H20 715  1090       1.647  34.626 229.439  1.00  0.00     0.274 HD
ATOM     28 2H20 715  1090       0.592  34.918 228.354  1.00  0.00     0.274 HD
ATOM     29 1H20 715  1090       1.534  36.223 228.882  1.00  0.00     0.274 HD
ENDBRANCH  15  26
ENDBRANCH  14  15
ENDBRANCH   1  14
BRANCH   9  30
HETATM   30  C42 715  1090       1.514  39.322 237.898  1.00 20.00     0.450 C 
HETATM   31  F45 715  1090       1.372  39.504 239.216  1.00 20.00    -0.163 F 
HETATM   32  F44 715  1090       2.789  39.159 237.567  1.00 20.00    -0.163 F 
HETATM   33  F43 715  1090       0.984  40.324 237.248  1.00 20.00    -0.163 F 
ENDBRANCH   9  30
TORSDOF 6
ENDMDL
MODEL 7
REMARK VINA RESULT:      -6.6      5.588      7.882
REMARK  6 active torsions:
REMARK  status: ('A' for Active; 'I' for Inactive)
REMARK    1  A    between atoms: C11_9  and  C3_3 
REMARK    2  A    between atoms: C11_9  and  C12_10 
REMARK    3  A    between atoms: C12_10  and  N20_14 
REMARK    4  A    between atoms: C12_10  and  C15_11 
REMARK    5  A    between atoms: C15_11  and  C16_12 
REMARK       I    between atoms: C16_12  and  N19_13 
REMARK    6  A    between atoms: C39_24  and  C42_29 
ROOT
HETATM    1  C16 715  1090      -1.395  36.918 234.023  1.00 20.00     0.202 C 
HETATM    2  N19 715  1090      -0.989  37.623 235.210  1.00 20.00    -0.245 NA
HETATM    3  O22 715  1090      -1.943  35.800 234.027  1.00 20.00    -0.280 OA
HETATM    4  C25 715  1090       0.263  38.356 234.908  1.00 20.00     0.119 C 
HETATM    5  C26 715  1090       1.540  37.829 235.533  1.00 20.00     0.147 C 
HETATM    6  N27 715  1090       1.332  37.320 236.922  1.00 20.00    -0.315 N 
HETATM    7  C28 715  1090       0.182  36.765 237.409  1.00 20.00     0.113 A 
HETATM    8  C29 715  1090      -1.007  36.656 236.432  1.00 20.00     0.176 C 
HETATM    9  C39 715  1090       2.159  37.260 237.982  1.00 20.00     0.209 A 
HETATM   10  N40 715  1090       1.511  36.707 239.024  1.00 20.00    -0.280 N 
ATOM     11  H40 715  1090       1.910  36.550 239.949  1.00  0.00     0.188 HD
HETATM   12  N41 715  1090       0.334  36.413 238.680  1.00 20.00    -0.286 N 
ATOM     13  H41 715  1090      -0.376  35.981 239.272  1.00  0.00     0.188 HD
ENDROOT
BRANCH   1  14
HETATM   14  C15 715  1090      -1.183  37.670 232.637  1.00 20.00     0.129 C 
BRANCH  14  15
HETATM   15  C12 715  1090      -2.259  38.620 232.175  1.00 20.00     0.196 C 
BRANCH  15  16
HETATM   16  C11 715  1090      -2.635  38.210 230.737  1.00 20.00     0.075 C 
BRANCH  16  17
HETATM   17  C3  715  1090      -2.930  39.391 229.864  1.00 20.00    -0.015 A 
HETATM   18  C2  715  1090      -1.856  40.308 229.565  1.00 20.00     0.125 A 
HETATM   19  C1  715  1090      -2.032  41.457 228.738  1.00 20.00     0.088 A 
HETATM   20  F10 715  1090      -0.653  40.093 230.078  1.00 20.00    -0.205 F 
HETATM   21  C6  715  1090      -3.321  41.682 228.192  1.00 20.00     0.157 A 
HETATM   22  C5  715  1090      -4.401  40.802 228.468  1.00 20.00     0.155 A 
HETATM   23  F46 715  1090      -3.506  42.724 227.432  1.00 20.00    -0.203 F 
HETATM   24  C4  715  1090      -4.224  39.647 229.297  1.00 20.00     0.055 A 
HETATM   25  F9  715  1090      -5.578  41.034 227.948  1.00 20.00    -0.203 F 
ENDBRANCH  16  17
ENDBRANCH  15  16
BRANCH  15  26
HETATM   26  N20 715  1090      -3.437  38.500 233.036  1.00 20.00    -0.074 N 
ATOM     27 3H20 715  1090      -3.704  37.528 233.192  1.00  0.00     0.274 HD
ATOM     28 2H20 715  1090      -3.236  38.752 234.003  1.00  0.00     0.274 HD
ATOM     29 1H20 715  1090      -4.199  39.053 232.642  1.00  0.00     0.274 HD
ENDBRANCH  15  26
ENDBRANCH  14  15
ENDBRANCH   1  14
BRANCH   9  30
HETATM   30  C42 715  1090       3.615  37.735 238.036  1.00 20.00     0.450 C 
HETATM   31  F45 715  1090       4.311  37.158 237.050  1.00 20.00    -0.163 F 
HETATM   32  F44 715  1090       3.594  39.056 237.904  1.00 20.00    -0.163 F 
HETATM   33  F43 715  1090       4.108  37.386 239.194  1.00 20.00    -0.163 F 
ENDBRANCH   9  30
TORSDOF 6
ENDMDL
MODEL 8
REMARK VINA RESULT:      -6.6      4.913      7.357
REMARK  6 active torsions:
REMARK  status: ('A' for Active; 'I' for Inactive)
REMARK    1  A    between atoms: C11_9  and  C3_3 
REMARK    2  A    between atoms: C11_9  and  C12_10 
REMARK    3  A    between atoms: C12_10  and  N20_14 
REMARK    4  A    between atoms: C12_10  and  C15_11 
REMARK    5  A    between atoms: C15_11  and  C16_12 
REMARK       I    between atoms: C16_12  and  N19_13 
REMARK    6  A    between atoms: C39_24  and  C42_29 
ROOT
HETATM    1  C16 715  1090      -0.639  35.811 232.789  1.00 20.00     0.202 C 
HETATM    2  N19 715  1090      -0.734  35.826 234.225  1.00 20.00    -0.245 NA
HETATM    3  O22 715  1090       0.278  35.257 232.154  1.00 20.00    -0.280 OA
HETATM    4  C25 715  1090      -1.302  37.130 234.638  1.00 20.00     0.119 C 
HETATM    5  C26 715  1090      -0.362  38.111 235.311  1.00 20.00     0.147 C 
HETATM    6  N27 715  1090       0.613  37.441 236.221  1.00 20.00    -0.315 N 
HETATM    7  C28 715  1090       1.113  36.177 236.072  1.00 20.00     0.113 A 
HETATM    8  C29 715  1090       0.620  35.374 234.849  1.00 20.00     0.176 C 
HETATM    9  C39 715  1090       1.229  37.870 237.339  1.00 20.00     0.209 A 
HETATM   10  N40 715  1090       2.032  36.896 237.808  1.00 20.00    -0.280 N 
ATOM     11  H40 715  1090       2.609  36.962 238.646  1.00  0.00     0.188 HD
HETATM   12  N41 715  1090       1.961  35.889 237.051  1.00 20.00    -0.286 N 
ATOM     13  H41 715  1090       2.465  35.011 237.170  1.00  0.00     0.188 HD
ENDROOT
BRANCH   1  14
HETATM   14  C15 715  1090      -1.831  36.494 231.986  1.00 20.00     0.129 C 
BRANCH  14  15
HETATM   15  C12 715  1090      -1.484  37.551 230.967  1.00 20.00     0.196 C 
BRANCH  15  16
HETATM   16  C11 715  1090      -1.994  38.895 231.523  1.00 20.00     0.075 C 
BRANCH  16  17
HETATM   17  C3  715  1090      -2.257  39.898 230.442  1.00 20.00    -0.015 A 
HETATM   18  C2  715  1090      -3.493  39.801 229.702  1.00 20.00     0.125 A 
HETATM   19  C1  715  1090      -3.841  40.710 228.660  1.00 20.00     0.088 A 
HETATM   20  F10 715  1090      -4.346  38.826 229.985  1.00 20.00    -0.205 F 
HETATM   21  C6  715  1090      -2.924  41.750 228.362  1.00 20.00     0.157 A 
HETATM   22  C5  715  1090      -1.698  41.874 229.068  1.00 20.00     0.155 A 
HETATM   23  F46 715  1090      -3.221  42.595 227.415  1.00 20.00    -0.203 F 
HETATM   24  C4  715  1090      -1.349  40.962 230.116  1.00 20.00     0.055 A 
HETATM   25  F9  715  1090      -0.873  42.846 228.773  1.00 20.00    -0.203 F 
ENDBRANCH  16  17
ENDBRANCH  15  16
BRANCH  15  26
HETATM   26  N20 715  1090      -0.033  37.619 230.791  1.00 20.00    -0.074 N 
ATOM     27 3H20 715  1090       0.381  38.403 231.296  1.00  0.00     0.274 HD
ATOM     28 2H20 715  1090       0.452  36.863 231.274  1.00  0.00     0.274 HD
ATOM     29 1H20 715  1090       0.184  37.643 229.794  1.00  0.00     0.274 HD
ENDBRANCH  15  26
ENDBRANCH  14  15
ENDBRANCH   1  14
BRANCH   9  30
HETATM   30  C42 715  1090       1.069  39.240 238.005  1.00 20.00     0.450 C 
HETATM   31  F45 715  1090       1.271  40.204 237.098  1.00 20.00    -0.163 F 
HETATM   32  F44 715  1090      -0.164  39.289 238.495  1.00 20.00    -0.163 F 
HETATM   33  F43 715  1090       1.958  39.329 238.957  1.00 20.00    -0.163 F 
ENDBRANCH   9  30
TORSDOF 6
ENDMDL
MODEL 9
REMARK VINA RESULT:      -6.5      6.505      8.894
REMARK  6 active torsions:
REMARK  status: ('A' for Active; 'I' for Inactive)
REMARK    1  A    between atoms: C11_9  and  C3_3 
REMARK    2  A    between atoms: C11_9  and  C12_10 
REMARK    3  A    between atoms: C12_10  and  N20_14 
REMARK    4  A    between atoms: C12_10  and  C15_11 
REMARK    5  A    between atoms: C15_11  and  C16_12 
REMARK       I    between atoms: C16_12  and  N19_13 
REMARK    6  A    between atoms: C39_24  and  C42_29 
ROOT
HETATM    1  C16 715  1090       0.341  35.856 232.839  1.00 20.00     0.202 C 
HETATM    2  N19 715  1090      -0.440  36.681 233.721  1.00 20.00    -0.245 NA
HETATM    3  O22 715  1090       0.479  34.625 232.972  1.00 20.00    -0.280 OA
HETATM    4  C25 715  1090       0.236  37.994 233.846  1.00 20.00     0.119 C 
HETATM    5  C26 715  1090       0.912  38.301 235.167  1.00 20.00     0.147 C 
HETATM    6  N27 715  1090       0.146  37.782 236.339  1.00 20.00    -0.315 N 
HETATM    7  C28 715  1090      -0.656  36.675 236.348  1.00 20.00     0.113 A 
HETATM    8  C29 715  1090      -0.777  35.893 235.023  1.00 20.00     0.176 C 
HETATM    9  C39 715  1090       0.056  38.219 237.609  1.00 20.00     0.209 A 
HETATM   10  N40 715  1090      -0.763  37.408 238.304  1.00 20.00    -0.280 N 
ATOM     11  H40 715  1090      -1.005  37.519 239.289  1.00  0.00     0.188 HD
HETATM   12  N41 715  1090      -1.185  36.489 237.550  1.00 20.00    -0.286 N 
ATOM     13  H41 715  1090      -1.820  35.737 237.817  1.00  0.00     0.188 HD
ENDROOT
BRANCH   1  14
HETATM   14  C15 715  1090       1.002  36.576 231.584  1.00 20.00     0.129 C 
BRANCH  14  15
HETATM   15  C12 715  1090       0.138  36.816 230.370  1.00 20.00     0.196 C 
BRANCH  15  16
HETATM   16  C11 715  1090      -0.613  35.500 230.086  1.00 20.00     0.075 C 
BRANCH  16  17
HETATM   17  C3  715  1090      -0.078  34.784 228.884  1.00 20.00    -0.015 A 
HETATM   18  C2  715  1090      -0.421  35.289 227.576  1.00 20.00     0.125 A 
HETATM   19  C1  715  1090       0.043  34.683 226.370  1.00 20.00     0.088 A 
HETATM   20  F10 715  1090      -1.206  36.352 227.473  1.00 20.00    -0.205 F 
HETATM   21  C6  715  1090       0.881  33.545 226.487  1.00 20.00     0.157 A 
HETATM   22  C5  715  1090       1.237  33.021 227.758  1.00 20.00     0.155 A 
HETATM   23  F46 715  1090       1.320  32.977 225.400  1.00 20.00    -0.203 F 
HETATM   24  C4  715  1090       0.772  33.630 228.969  1.00 20.00     0.055 A 
HETATM   25  F9  715  1090       2.015  31.972 227.835  1.00 20.00    -0.203 F 
ENDBRANCH  16  17
ENDBRANCH  15  16
BRANCH  15  26
HETATM   26  N20 715  1090      -0.832  37.877 230.647  1.00 20.00    -0.074 N 
ATOM     27 3H20 715  1090      -0.409  38.671 231.129  1.00  0.00     0.274 HD
ATOM     28 2H20 715  1090      -1.125  38.362 229.799  1.00  0.00     0.274 HD
ATOM     29 1H20 715  1090      -1.621  37.486 231.162  1.00  0.00     0.274 HD
ENDBRANCH  15  26
ENDBRANCH  14  15
ENDBRANCH   1  14
BRANCH   9  30
HETATM   30  C42 715  1090       0.758  39.442 238.209  1.00 20.00     0.450 C 
HETATM   31  F45 715  1090       1.113  40.280 237.228  1.00 20.00    -0.163 F 
HETATM   32  F44 715  1090      -0.105  40.011 239.042  1.00 20.00    -0.163 F 
HETATM   33  F43 715  1090       1.819  39.023 238.845  1.00 20.00    -0.163 F 
ENDBRANCH   9  30
TORSDOF 6
ENDMDL
