MODEL 1
REMARK VINA RESULT:      -8.1      0.000      0.000
REMARK  9 active torsions:
REMARK  status: ('A' for Active; 'I' for Inactive)
REMARK    1  A    between atoms: C3_3  and  O3_4 
REMARK    2  A    between atoms: C7_9  and  C8_10 
REMARK    3  A    between atoms: C11_13  and  O11_14 
REMARK    4  A    between atoms: C15_19  and  C16_20 
REMARK    5  A    between atoms: C16_20  and  C17_22 
REMARK    6  A    between atoms: C20_25  and  O23_28 
REMARK    7  A    between atoms: C24_29  and  O23_28 
REMARK    8  A    between atoms: C24_29  and  C25_30 
REMARK    9  A    between atoms: C25_30  and  N26_31 
ROOT
HETATM    1  C1  RAL  6541      -4.477  41.136 227.753  1.00 20.00     0.016 A 
HETATM    2  C2  RAL  6541      -5.540  41.039 226.853  1.00 20.00     0.037 A 
HETATM    3  C3  RAL  6541      -5.427  41.669 225.619  1.00 20.00     0.067 A 
HETATM    4  C4  RAL  6541      -4.248  42.377 225.296  1.00 20.00     0.056 A 
HETATM    5  C5  RAL  6541      -3.220  42.453 226.171  1.00 20.00     0.019 A 
HETATM    6  S6  RAL  6541      -1.723  43.201 226.036  1.00 20.00    -0.088 SA
HETATM    7  C7  RAL  6541      -1.091  42.793 227.534  1.00 20.00     0.031 A 
HETATM    8  C14 RAL  6541      -3.321  41.827 227.444  1.00 20.00    -0.003 A 
HETATM    9  C15 RAL  6541      -2.083  42.028 228.211  1.00 20.00     0.044 A 
ENDROOT
BRANCH   9  10
HETATM   10  C16 RAL  6541      -1.876  41.555 229.504  1.00 20.00     0.194 C 
HETATM   11  O16 RAL  6541      -1.770  42.393 230.419  1.00 20.00    -0.287 OA
BRANCH  10  12
HETATM   12  C17 RAL  6541      -1.773  40.132 229.812  1.00 20.00     0.015 A 
HETATM   13  C18 RAL  6541      -2.828  39.447 230.412  1.00 20.00     0.018 A 
HETATM   14  C19 RAL  6541      -2.783  38.068 230.734  1.00 20.00     0.037 A 
HETATM   15  C20 RAL  6541      -1.602  37.412 230.426  1.00 20.00     0.068 A 
HETATM   16  C21 RAL  6541      -0.554  38.100 229.836  1.00 20.00     0.037 A 
HETATM   17  C22 RAL  6541      -0.618  39.425 229.523  1.00 20.00     0.018 A 
BRANCH  15  18
HETATM   18  O23 RAL  6541      -1.271  36.074 230.628  1.00 20.00    -0.349 OA
BRANCH  18  19
HETATM   19  C24 RAL  6541       0.087  35.815 230.896  1.00 20.00     0.206 C 
BRANCH  19  20
HETATM   20  C25 RAL  6541       0.096  35.061 232.219  1.00 20.00     0.299 C 
BRANCH  20  21
HETATM   21  N26 RAL  6541       0.170  35.824 233.480  1.00 20.00     0.090 N 
HETATM   22  C27 RAL  6541       1.039  36.998 233.199  1.00 20.00     0.272 C 
HETATM   23  C28 RAL  6541       1.170  37.932 234.400  1.00 20.00     0.030 C 
HETATM   24  C29 RAL  6541       1.783  37.156 235.584  1.00 20.00     0.003 C 
HETATM   25  C30 RAL  6541       0.902  35.934 235.850  1.00 20.00     0.030 C 
HETATM   26  C31 RAL  6541       0.764  35.068 234.591  1.00 20.00     0.272 C 
ENDBRANCH  20  21
ENDBRANCH  19  20
ENDBRANCH  18  19
ENDBRANCH  15  18
ENDBRANCH  10  12
ENDBRANCH   9  10
BRANCH   7  27
HETATM   27  C8  RAL  6541       0.257  43.195 228.020  1.00 20.00    -0.018 A 
HETATM   28  C13 RAL  6541       1.331  42.320 227.915  1.00 20.00     0.015 A 
HETATM   29  C12 RAL  6541       2.596  42.677 228.377  1.00 20.00     0.037 A 
HETATM   30  C11 RAL  6541       2.799  43.923 228.952  1.00 20.00     0.065 A 
HETATM   31  C10 RAL  6541       1.737  44.805 229.062  1.00 20.00     0.037 A 
HETATM   32  C9  RAL  6541       0.479  44.418 228.587  1.00 20.00     0.015 A 
BRANCH  30  33
HETATM   33  O11 RAL  6541       4.050  44.293 229.413  1.00 20.00    -0.361 OA
ATOM     34  H11 RAL  6541       4.559  44.935 228.933  1.00  0.00     0.217 HD
ENDBRANCH  30  33
ENDBRANCH   7  27
BRANCH   3  35
HETATM   35  O3  RAL  6541      -6.481  41.587 224.734  1.00 20.00    -0.361 OA
ATOM     36  H3  RAL  6541      -7.010  42.362 224.580  1.00  0.00     0.217 HD
ENDBRANCH   3  35
TORSDOF 9
ENDMDL
MODEL 2
REMARK VINA RESULT:      -8.0      3.408      7.722
REMARK  9 active torsions:
REMARK  status: ('A' for Active; 'I' for Inactive)
REMARK    1  A    between atoms: C3_3  and  O3_4 
REMARK    2  A    between atoms: C7_9  and  C8_10 
REMARK    3  A    between atoms: C11_13  and  O11_14 
REMARK    4  A    between atoms: C15_19  and  C16_20 
REMARK    5  A    between atoms: C16_20  and  C17_22 
REMARK    6  A    between atoms: C20_25  and  O23_28 
REMARK    7  A    between atoms: C24_29  and  O23_28 
REMARK    8  A    between atoms: C24_29  and  C25_30 
REMARK    9  A    between atoms: C25_30  and  N26_31 
ROOT
HETATM    1  C1  RAL  6541      -2.073  35.965 227.044  1.00 20.00     0.016 A 
HETATM    2  C2  RAL  6541      -1.908  35.506 225.736  1.00 20.00     0.037 A 
HETATM    3  C3  RAL  6541      -0.783  34.749 225.433  1.00 20.00     0.067 A 
HETATM    4  C4  RAL  6541       0.158  34.451 226.444  1.00 20.00     0.056 A 
HETATM    5  C5  RAL  6541      -0.019  34.890 227.711  1.00 20.00     0.019 A 
HETATM    6  S6  RAL  6541       0.918  34.668 229.085  1.00 20.00    -0.088 SA
HETATM    7  C7  RAL  6541      -0.022  35.516 230.183  1.00 20.00     0.031 A 
HETATM    8  C14 RAL  6541      -1.158  35.678 228.038  1.00 20.00    -0.003 A 
HETATM    9  C15 RAL  6541      -1.145  36.021 229.468  1.00 20.00     0.044 A 
ENDROOT
BRANCH   9  10
HETATM   10  C16 RAL  6541      -2.113  36.802 230.095  1.00 20.00     0.194 C 
HETATM   11  O16 RAL  6541      -2.897  36.237 230.879  1.00 20.00    -0.287 OA
BRANCH  10  12
HETATM   12  C17 RAL  6541      -2.238  38.236 229.856  1.00 20.00     0.015 A 
HETATM   13  C18 RAL  6541      -3.392  38.774 229.290  1.00 20.00     0.018 A 
HETATM   14  C19 RAL  6541      -3.568  40.157 229.034  1.00 20.00     0.037 A 
HETATM   15  C20 RAL  6541      -2.503  40.976 229.372  1.00 20.00     0.068 A 
HETATM   16  C21 RAL  6541      -1.355  40.434 229.927  1.00 20.00     0.037 A 
HETATM   17  C22 RAL  6541      -1.206  39.103 230.177  1.00 20.00     0.018 A 
BRANCH  15  18
HETATM   18  O23 RAL  6541      -2.388  42.357 229.234  1.00 20.00    -0.349 OA
BRANCH  18  19
HETATM   19  C24 RAL  6541      -1.166  42.913 229.656  1.00 20.00     0.206 C 
BRANCH  19  20
HETATM   20  C25 RAL  6541      -0.573  43.564 228.413  1.00 20.00     0.299 C 
BRANCH  20  21
HETATM   21  N26 RAL  6541       0.887  43.754 228.328  1.00 20.00     0.090 N 
HETATM   22  C27 RAL  6541       1.473  42.391 228.227  1.00 20.00     0.272 C 
HETATM   23  C28 RAL  6541       2.992  42.416 228.068  1.00 20.00     0.030 C 
HETATM   24  C29 RAL  6541       3.620  43.116 229.291  1.00 20.00     0.003 C 
HETATM   25  C30 RAL  6541       2.993  44.507 229.408  1.00 20.00     0.030 C 
HETATM   26  C31 RAL  6541       1.464  44.416 229.507  1.00 20.00     0.272 C 
ENDBRANCH  20  21
ENDBRANCH  19  20
ENDBRANCH  18  19
ENDBRANCH  15  18
ENDBRANCH  10  12
ENDBRANCH   9  10
BRANCH   7  27
HETATM   27  C8  RAL  6541       0.309  35.688 231.624  1.00 20.00    -0.018 A 
HETATM   28  C13 RAL  6541       0.057  34.666 232.529  1.00 20.00     0.015 A 
HETATM   29  C12 RAL  6541       0.350  34.818 233.883  1.00 20.00     0.037 A 
HETATM   30  C11 RAL  6541       0.903  36.004 234.345  1.00 20.00     0.065 A 
HETATM   31  C10 RAL  6541       1.160  37.030 233.452  1.00 20.00     0.037 A 
HETATM   32  C9  RAL  6541       0.856  36.846 232.099  1.00 20.00     0.015 A 
BRANCH  30  33
HETATM   33  O11 RAL  6541       1.202  36.168 235.687  1.00 20.00    -0.361 OA
ATOM     34  H11 RAL  6541       1.420  35.411 236.218  1.00  0.00     0.217 HD
ENDBRANCH  30  33
ENDBRANCH   7  27
BRANCH   3  35
HETATM   35  O3  RAL  6541      -0.610  34.307 224.138  1.00 20.00    -0.361 OA
ATOM     36  H3  RAL  6541      -1.247  33.703 223.773  1.00  0.00     0.217 HD
ENDBRANCH   3  35
TORSDOF 9
ENDMDL
MODEL 3
REMARK VINA RESULT:      -7.9      4.001     10.376
REMARK  9 active torsions:
REMARK  status: ('A' for Active; 'I' for Inactive)
REMARK    1  A    between atoms: C3_3  and  O3_4 
REMARK    2  A    between atoms: C7_9  and  C8_10 
REMARK    3  A    between atoms: C11_13  and  O11_14 
REMARK    4  A    between atoms: C15_19  and  C16_20 
REMARK    5  A    between atoms: C16_20  and  C17_22 
REMARK    6  A    between atoms: C20_25  and  O23_28 
REMARK    7  A    between atoms: C24_29  and  O23_28 
REMARK    8  A    between atoms: C24_29  and  C25_30 
REMARK    9  A    between atoms: C25_30  and  N26_31 
ROOT
HETATM    1  C1  RAL  6541       0.990  38.739 236.608  1.00 20.00     0.016 A 
HETATM    2  C2  RAL  6541       1.923  39.457 237.356  1.00 20.00     0.037 A 
HETATM    3  C3  RAL  6541       3.030  38.786 237.861  1.00 20.00     0.067 A 
HETATM    4  C4  RAL  6541       3.196  37.407 237.602  1.00 20.00     0.056 A 
HETATM    5  C5  RAL  6541       2.291  36.725 236.863  1.00 20.00     0.019 A 
HETATM    6  S6  RAL  6541       2.257  35.113 236.395  1.00 20.00    -0.088 SA
HETATM    7  C7  RAL  6541       0.831  35.127 235.514  1.00 20.00     0.031 A 
HETATM    8  C14 RAL  6541       1.145  37.390 236.349  1.00 20.00    -0.003 A 
HETATM    9  C15 RAL  6541       0.320  36.456 235.568  1.00 20.00     0.044 A 
ENDROOT
BRANCH   9  10
HETATM   10  C16 RAL  6541      -0.881  36.797 234.953  1.00 20.00     0.194 C 
HETATM   11  O16 RAL  6541      -1.938  36.530 235.553  1.00 20.00    -0.287 OA
BRANCH  10  12
HETATM   12  C17 RAL  6541      -0.936  37.437 233.642  1.00 20.00     0.015 A 
HETATM   13  C18 RAL  6541      -0.226  36.923 232.559  1.00 20.00     0.018 A 
HETATM   14  C19 RAL  6541      -0.241  37.503 231.266  1.00 20.00     0.037 A 
HETATM   15  C20 RAL  6541      -1.008  38.648 231.125  1.00 20.00     0.068 A 
HETATM   16  C21 RAL  6541      -1.705  39.159 232.208  1.00 20.00     0.037 A 
HETATM   17  C22 RAL  6541      -1.690  38.582 233.442  1.00 20.00     0.018 A 
BRANCH  15  18
HETATM   18  O23 RAL  6541      -1.208  39.429 229.989  1.00 20.00    -0.349 OA
BRANCH  18  19
HETATM   19  C24 RAL  6541      -1.564  40.770 230.224  1.00 20.00     0.206 C 
BRANCH  19  20
HETATM   20  C25 RAL  6541      -0.934  41.556 229.081  1.00 20.00     0.299 C 
BRANCH  20  21
HETATM   21  N26 RAL  6541       0.460  42.020 229.210  1.00 20.00     0.090 N 
HETATM   22  C27 RAL  6541       0.382  43.441 229.639  1.00 20.00     0.272 C 
HETATM   23  C28 RAL  6541       1.758  44.058 229.880  1.00 20.00     0.030 C 
HETATM   24  C29 RAL  6541       2.578  43.998 228.574  1.00 20.00     0.003 C 
HETATM   25  C30 RAL  6541       2.631  42.537 228.122  1.00 20.00     0.030 C 
HETATM   26  C31 RAL  6541       1.220  41.960 227.953  1.00 20.00     0.272 C 
ENDBRANCH  20  21
ENDBRANCH  19  20
ENDBRANCH  18  19
ENDBRANCH  15  18
ENDBRANCH  10  12
ENDBRANCH   9  10
BRANCH   7  27
HETATM   27  C8  RAL  6541       0.247  33.940 234.833  1.00 20.00    -0.018 A 
HETATM   28  C13 RAL  6541       0.581  33.651 233.516  1.00 20.00     0.015 A 
HETATM   29  C12 RAL  6541       0.032  32.550 232.861  1.00 20.00     0.037 A 
HETATM   30  C11 RAL  6541      -0.863  31.723 233.525  1.00 20.00     0.065 A 
HETATM   31  C10 RAL  6541      -1.205  32.000 234.838  1.00 20.00     0.037 A 
HETATM   32  C9  RAL  6541      -0.635  33.112 235.468  1.00 20.00     0.015 A 
BRANCH  30  33
HETATM   33  O11 RAL  6541      -1.415  30.625 232.888  1.00 20.00    -0.361 OA
ATOM     34  H11 RAL  6541      -2.033  30.752 232.178  1.00  0.00     0.217 HD
ENDBRANCH  30  33
ENDBRANCH   7  27
BRANCH   3  35
HETATM   35  O3  RAL  6541       3.946  39.490 238.614  1.00 20.00    -0.361 OA
ATOM     36  H3  RAL  6541       3.891  40.439 238.631  1.00  0.00     0.217 HD
ENDBRANCH   3  35
TORSDOF 9
ENDMDL
MODEL 4
REMARK VINA RESULT:      -7.8      6.215     10.998
REMARK  9 active torsions:
REMARK  status: ('A' for Active; 'I' for Inactive)
REMARK    1  A    between atoms: C3_3  and  O3_4 
REMARK    2  A    between atoms: C7_9  and  C8_10 
REMARK    3  A    between atoms: C11_13  and  O11_14 
REMARK    4  A    between atoms: C15_19  and  C16_20 
REMARK    5  A    between atoms: C16_20  and  C17_22 
REMARK    6  A    between atoms: C20_25  and  O23_28 
REMARK    7  A    between atoms: C24_29  and  O23_28 
REMARK    8  A    between atoms: C24_29  and  C25_30 
REMARK    9  A    between atoms: C25_30  and  N26_31 
ROOT
HETATM    1  C1  RAL  6541       1.699  38.223 236.718  1.00 20.00     0.016 A 
HETATM    2  C2  RAL  6541       2.437  39.144 237.463  1.00 20.00     0.037 A 
HETATM    3  C3  RAL  6541       3.475  38.677 238.260  1.00 20.00     0.067 A 
HETATM    4  C4  RAL  6541       3.770  37.297 238.294  1.00 20.00     0.056 A 
HETATM    5  C5  RAL  6541       3.056  36.414 237.557  1.00 20.00     0.019 A 
HETATM    6  S6  RAL  6541       3.206  34.750 237.400  1.00 20.00    -0.088 SA
HETATM    7  C7  RAL  6541       1.964  34.478 236.309  1.00 20.00     0.031 A 
HETATM    8  C14 RAL  6541       1.981  36.871 236.746  1.00 20.00    -0.003 A 
HETATM    9  C15 RAL  6541       1.370  35.742 236.029  1.00 20.00     0.044 A 
ENDROOT
BRANCH   9  10
HETATM   10  C16 RAL  6541       0.280  35.857 235.170  1.00 20.00     0.194 C 
HETATM   11  O16 RAL  6541      -0.854  35.929 235.678  1.00 20.00    -0.287 OA
BRANCH  10  12
HETATM   12  C17 RAL  6541       0.425  35.885 233.718  1.00 20.00     0.015 A 
HETATM   13  C18 RAL  6541       0.008  34.813 232.931  1.00 20.00     0.018 A 
HETATM   14  C19 RAL  6541       0.126  34.785 231.520  1.00 20.00     0.037 A 
HETATM   15  C20 RAL  6541       0.702  35.903 230.938  1.00 20.00     0.068 A 
HETATM   16  C21 RAL  6541       1.122  36.963 231.726  1.00 20.00     0.037 A 
HETATM   17  C22 RAL  6541       0.991  36.978 233.082  1.00 20.00     0.018 A 
BRANCH  15  18
HETATM   18  O23 RAL  6541       0.948  36.154 229.590  1.00 20.00    -0.349 OA
BRANCH  18  19
HETATM   19  C24 RAL  6541      -0.177  36.497 228.817  1.00 20.00     0.206 C 
BRANCH  19  20
HETATM   20  C25 RAL  6541      -0.526  35.235 228.039  1.00 20.00     0.299 C 
BRANCH  20  21
HETATM   21  N26 RAL  6541       0.563  34.412 227.479  1.00 20.00     0.090 N 
HETATM   22  C27 RAL  6541       0.188  34.145 226.065  1.00 20.00     0.272 C 
HETATM   23  C28 RAL  6541       1.254  33.347 225.317  1.00 20.00     0.030 C 
HETATM   24  C29 RAL  6541       1.461  31.989 226.021  1.00 20.00     0.003 C 
HETATM   25  C30 RAL  6541       1.817  32.269 227.482  1.00 20.00     0.030 C 
HETATM   26  C31 RAL  6541       0.736  33.122 228.160  1.00 20.00     0.272 C 
ENDBRANCH  20  21
ENDBRANCH  19  20
ENDBRANCH  18  19
ENDBRANCH  15  18
ENDBRANCH  10  12
ENDBRANCH   9  10
BRANCH   7  27
HETATM   27  C8  RAL  6541       1.585  33.141 235.775  1.00 20.00    -0.018 A 
HETATM   28  C13 RAL  6541       0.450  32.493 236.245  1.00 20.00     0.015 A 
HETATM   29  C12 RAL  6541       0.091  31.236 235.763  1.00 20.00     0.037 A 
HETATM   30  C11 RAL  6541       0.870  30.612 234.799  1.00 20.00     0.065 A 
HETATM   31  C10 RAL  6541       2.004  31.248 234.322  1.00 20.00     0.037 A 
HETATM   32  C9  RAL  6541       2.337  32.511 234.824  1.00 20.00     0.015 A 
BRANCH  30  33
HETATM   33  O11 RAL  6541       0.523  29.365 234.310  1.00 20.00    -0.361 OA
ATOM     34  H11 RAL  6541       1.099  28.624 234.456  1.00  0.00     0.217 HD
ENDBRANCH  30  33
ENDBRANCH   7  27
BRANCH   3  35
HETATM   35  O3  RAL  6541       4.195  39.585 239.009  1.00 20.00    -0.361 OA
ATOM     36  H3  RAL  6541       4.482  40.392 238.596  1.00  0.00     0.217 HD
ENDBRANCH   3  35
TORSDOF 9
ENDMDL
MODEL 5
REMARK VINA RESULT:      -7.7      3.998      7.199
REMARK  9 active torsions:
REMARK  status: ('A' for Active; 'I' for Inactive)
REMARK    1  A    between atoms: C3_3  and  O3_4 
REMARK    2  A    between atoms: C7_9  and  C8_10 
REMARK    3  A    between atoms: C11_13  and  O11_14 
REMARK    4  A    between atoms: C15_19  and  C16_20 
REMARK    5  A    between atoms: C16_20  and  C17_22 
REMARK    6  A    between atoms: C20_25  and  O23_28 
REMARK    7  A    between atoms: C24_29  and  O23_28 
REMARK    8  A    between atoms: C24_29  and  C25_30 
REMARK    9  A    between atoms: C25_30  and  N26_31 
ROOT
HETATM    1  C1  RAL  6541      -1.377  38.900 230.523  1.00 20.00     0.016 A 
HETATM    2  C2  RAL  6541      -2.298  39.944 230.426  1.00 20.00     0.037 A 
HETATM    3  C3  RAL  6541      -3.434  39.760 229.648  1.00 20.00     0.067 A 
HETATM    4  C4  RAL  6541      -3.642  38.530 228.986  1.00 20.00     0.056 A 
HETATM    5  C5  RAL  6541      -2.750  37.520 229.098  1.00 20.00     0.019 A 
HETATM    6  S6  RAL  6541      -2.761  35.974 228.444  1.00 20.00    -0.088 SA
HETATM    7  C7  RAL  6541      -1.323  35.406 229.089  1.00 20.00     0.031 A 
HETATM    8  C14 RAL  6541      -1.573  37.693 229.879  1.00 20.00    -0.003 A 
HETATM    9  C15 RAL  6541      -0.769  36.462 229.868  1.00 20.00     0.044 A 
ENDROOT
BRANCH   9  10
HETATM   10  C16 RAL  6541       0.453  36.319 230.521  1.00 20.00     0.194 C 
HETATM   11  O16 RAL  6541       1.491  36.466 229.850  1.00 20.00    -0.287 OA
BRANCH  10  12
HETATM   12  C17 RAL  6541       0.549  35.997 231.941  1.00 20.00     0.015 A 
HETATM   13  C18 RAL  6541       0.948  36.955 232.871  1.00 20.00     0.018 A 
HETATM   14  C19 RAL  6541       1.061  36.699 234.260  1.00 20.00     0.037 A 
HETATM   15  C20 RAL  6541       0.757  35.409 234.665  1.00 20.00     0.068 A 
HETATM   16  C21 RAL  6541       0.369  34.459 233.734  1.00 20.00     0.037 A 
HETATM   17  C22 RAL  6541       0.254  34.725 232.403  1.00 20.00     0.018 A 
BRANCH  15  18
HETATM   18  O23 RAL  6541       0.782  34.871 235.949  1.00 20.00    -0.349 OA
BRANCH  18  19
HETATM   19  C24 RAL  6541       1.996  35.012 236.647  1.00 20.00     0.206 C 
BRANCH  19  20
HETATM   20  C25 RAL  6541       1.605  35.527 238.026  1.00 20.00     0.299 C 
BRANCH  20  21
HETATM   21  N26 RAL  6541       1.668  36.976 238.297  1.00 20.00     0.090 N 
HETATM   22  C27 RAL  6541       0.334  37.521 237.931  1.00 20.00     0.272 C 
HETATM   23  C28 RAL  6541       0.214  39.017 238.214  1.00 20.00     0.030 C 
HETATM   24  C29 RAL  6541       1.280  39.777 237.397  1.00 20.00     0.003 C 
HETATM   25  C30 RAL  6541       2.649  39.192 237.755  1.00 20.00     0.030 C 
HETATM   26  C31 RAL  6541       2.686  37.679 237.503  1.00 20.00     0.272 C 
ENDBRANCH  20  21
ENDBRANCH  19  20
ENDBRANCH  18  19
ENDBRANCH  15  18
ENDBRANCH  10  12
ENDBRANCH   9  10
BRANCH   7  27
HETATM   27  C8  RAL  6541      -0.768  34.046 228.850  1.00 20.00    -0.018 A 
HETATM   28  C13 RAL  6541      -1.222  32.962 229.590  1.00 20.00     0.015 A 
HETATM   29  C12 RAL  6541      -0.702  31.685 229.386  1.00 20.00     0.037 A 
HETATM   30  C11 RAL  6541       0.284  31.481 228.431  1.00 20.00     0.065 A 
HETATM   31  C10 RAL  6541       0.745  32.553 227.686  1.00 20.00     0.037 A 
HETATM   32  C9  RAL  6541       0.202  33.823 227.914  1.00 20.00     0.015 A 
BRANCH  30  33
HETATM   33  O11 RAL  6541       0.807  30.218 228.216  1.00 20.00    -0.361 OA
ATOM     34  H11 RAL  6541       1.737  30.066 228.333  1.00  0.00     0.217 HD
ENDBRANCH  30  33
ENDBRANCH   7  27
BRANCH   3  35
HETATM   35  O3  RAL  6541      -4.338  40.797 229.538  1.00 20.00    -0.361 OA
ATOM     36  H3  RAL  6541      -5.261  40.591 229.449  1.00  0.00     0.217 HD
ENDBRANCH   3  35
TORSDOF 9
ENDMDL
MODEL 6
REMARK VINA RESULT:      -7.6      2.359      3.392
REMARK  9 active torsions:
REMARK  status: ('A' for Active; 'I' for Inactive)
REMARK    1  A    between atoms: C3_3  and  O3_4 
REMARK    2  A    between atoms: C7_9  and  C8_10 
REMARK    3  A    between atoms: C11_13  and  O11_14 
REMARK    4  A    between atoms: C15_19  and  C16_20 
REMARK    5  A    between atoms: C16_20  and  C17_22 
REMARK    6  A    between atoms: C20_25  and  O23_28 
REMARK    7  A    between atoms: C24_29  and  O23_28 
REMARK    8  A    between atoms: C24_29  and  C25_30 
REMARK    9  A    between atoms: C25_30  and  N26_31 
ROOT
HETATM    1  C1  RAL  6541      -4.327  41.111 227.870  1.00 20.00     0.016 A 
HETATM    2  C2  RAL  6541      -5.397  41.021 226.980  1.00 20.00     0.037 A 
HETATM    3  C3  RAL  6541      -5.306  41.681 225.760  1.00 20.00     0.067 A 
HETATM    4  C4  RAL  6541      -4.140  42.413 225.442  1.00 20.00     0.056 A 
HETATM    5  C5  RAL  6541      -3.103  42.481 226.308  1.00 20.00     0.019 A 
HETATM    6  S6  RAL  6541      -1.618  43.252 226.175  1.00 20.00    -0.088 SA
HETATM    7  C7  RAL  6541      -0.964  42.817 227.655  1.00 20.00     0.031 A 
HETATM    8  C14 RAL  6541      -3.183  41.824 227.567  1.00 20.00    -0.003 A 
HETATM    9  C15 RAL  6541      -1.939  42.023 228.325  1.00 20.00     0.044 A 
ENDROOT
BRANCH   9  10
HETATM   10  C16 RAL  6541      -1.712  41.522 229.604  1.00 20.00     0.194 C 
HETATM   11  O16 RAL  6541      -1.505  42.340 230.519  1.00 20.00    -0.287 OA
BRANCH  10  12
HETATM   12  C17 RAL  6541      -1.702  40.092 229.896  1.00 20.00     0.015 A 
HETATM   13  C18 RAL  6541      -2.756  39.490 230.581  1.00 20.00     0.018 A 
HETATM   14  C19 RAL  6541      -2.799  38.108 230.893  1.00 20.00     0.037 A 
HETATM   15  C20 RAL  6541      -1.707  37.360 230.483  1.00 20.00     0.068 A 
HETATM   16  C21 RAL  6541      -0.659  37.967 229.809  1.00 20.00     0.037 A 
HETATM   17  C22 RAL  6541      -0.638  39.295 229.507  1.00 20.00     0.018 A 
BRANCH  15  18
HETATM   18  O23 RAL  6541      -1.472  35.998 230.651  1.00 20.00    -0.349 OA
BRANCH  18  19
HETATM   19  C24 RAL  6541      -2.020  35.157 229.664  1.00 20.00     0.206 C 
BRANCH  19  20
HETATM   20  C25 RAL  6541      -1.345  33.808 229.870  1.00 20.00     0.299 C 
BRANCH  20  21
HETATM   21  N26 RAL  6541      -0.656  33.168 228.733  1.00 20.00     0.090 N 
HETATM   22  C27 RAL  6541       0.223  32.122 229.321  1.00 20.00     0.272 C 
HETATM   23  C28 RAL  6541       0.968  31.317 228.258  1.00 20.00     0.030 C 
HETATM   24  C29 RAL  6541       1.850  32.269 227.424  1.00 20.00     0.003 C 
HETATM   25  C30 RAL  6541       0.946  33.360 226.845  1.00 20.00     0.030 C 
HETATM   26  C31 RAL  6541       0.183  34.092 227.958  1.00 20.00     0.272 C 
ENDBRANCH  20  21
ENDBRANCH  19  20
ENDBRANCH  18  19
ENDBRANCH  15  18
ENDBRANCH  10  12
ENDBRANCH   9  10
BRANCH   7  27
HETATM   27  C8  RAL  6541       0.384  43.225 228.137  1.00 20.00    -0.018 A 
HETATM   28  C13 RAL  6541       1.460  42.354 228.030  1.00 20.00     0.015 A 
HETATM   29  C12 RAL  6541       2.725  42.717 228.487  1.00 20.00     0.037 A 
HETATM   30  C11 RAL  6541       2.925  43.965 229.060  1.00 20.00     0.065 A 
HETATM   31  C10 RAL  6541       1.860  44.842 229.172  1.00 20.00     0.037 A 
HETATM   32  C9  RAL  6541       0.603  44.449 228.702  1.00 20.00     0.015 A 
BRANCH  30  33
HETATM   33  O11 RAL  6541       4.177  44.340 229.517  1.00 20.00    -0.361 OA
ATOM     34  H11 RAL  6541       4.266  44.738 230.375  1.00  0.00     0.217 HD
ENDBRANCH  30  33
ENDBRANCH   7  27
BRANCH   3  35
HETATM   35  O3  RAL  6541      -6.369  41.607 224.885  1.00 20.00    -0.361 OA
ATOM     36  H3  RAL  6541      -7.249  41.728 225.223  1.00  0.00     0.217 HD
ENDBRANCH   3  35
TORSDOF 9
ENDMDL
MODEL 7
REMARK VINA RESULT:      -7.6      4.803     10.877
REMARK  9 active torsions:
REMARK  status: ('A' for Active; 'I' for Inactive)
REMARK    1  A    between atoms: C3_3  and  O3_4 
REMARK    2  A    between atoms: C7_9  and  C8_10 
REMARK    3  A    between atoms: C11_13  and  O11_14 
REMARK    4  A    between atoms: C15_19  and  C16_20 
REMARK    5  A    between atoms: C16_20  and  C17_22 
REMARK    6  A    between atoms: C20_25  and  O23_28 
REMARK    7  A    between atoms: C24_29  and  O23_28 
REMARK    8  A    between atoms: C24_29  and  C25_30 
REMARK    9  A    between atoms: C25_30  and  N26_31 
ROOT
HETATM    1  C1  RAL  6541       1.695  38.151 236.870  1.00 20.00     0.016 A 
HETATM    2  C2  RAL  6541       2.437  39.095 237.581  1.00 20.00     0.037 A 
HETATM    3  C3  RAL  6541       3.515  38.659 238.342  1.00 20.00     0.067 A 
HETATM    4  C4  RAL  6541       3.844  37.286 238.374  1.00 20.00     0.056 A 
HETATM    5  C5  RAL  6541       3.125  36.382 237.671  1.00 20.00     0.019 A 
HETATM    6  S6  RAL  6541       3.309  34.720 237.520  1.00 20.00    -0.088 SA
HETATM    7  C7  RAL  6541       2.034  34.410 236.477  1.00 20.00     0.031 A 
HETATM    8  C14 RAL  6541       2.010  36.806 236.896  1.00 20.00    -0.003 A 
HETATM    9  C15 RAL  6541       1.400  35.657 236.210  1.00 20.00     0.044 A 
ENDROOT
BRANCH   9  10
HETATM   10  C16 RAL  6541       0.277  35.740 235.392  1.00 20.00     0.194 C 
HETATM   11  O16 RAL  6541      -0.837  35.827 235.941  1.00 20.00    -0.287 OA
BRANCH  10  12
HETATM   12  C17 RAL  6541       0.365  35.717 233.936  1.00 20.00     0.015 A 
HETATM   13  C18 RAL  6541       0.941  36.773 233.232  1.00 20.00     0.018 A 
HETATM   14  C19 RAL  6541       1.051  36.806 231.820  1.00 20.00     0.037 A 
HETATM   15  C20 RAL  6541       0.535  35.710 231.146  1.00 20.00     0.068 A 
HETATM   16  C21 RAL  6541      -0.043  34.667 231.851  1.00 20.00     0.037 A 
HETATM   17  C22 RAL  6541      -0.131  34.646 233.210  1.00 20.00     0.018 A 
BRANCH  15  18
HETATM   18  O23 RAL  6541       0.499  35.469 229.775  1.00 20.00    -0.349 OA
BRANCH  18  19
HETATM   19  C24 RAL  6541       0.170  36.575 228.969  1.00 20.00     0.206 C 
BRANCH  19  20
HETATM   20  C25 RAL  6541      -1.343  36.712 229.078  1.00 20.00     0.299 C 
BRANCH  20  21
HETATM   21  N26 RAL  6541      -1.911  37.914 229.716  1.00 20.00     0.090 N 
HETATM   22  C27 RAL  6541      -3.128  38.258 228.934  1.00 20.00     0.272 C 
HETATM   23  C28 RAL  6541      -3.876  39.458 229.511  1.00 20.00     0.030 C 
HETATM   24  C29 RAL  6541      -2.944  40.688 229.509  1.00 20.00     0.003 C 
HETATM   25  C30 RAL  6541      -1.681  40.319 230.290  1.00 20.00     0.030 C 
HETATM   26  C31 RAL  6541      -1.009  39.074 229.696  1.00 20.00     0.272 C 
ENDBRANCH  20  21
ENDBRANCH  19  20
ENDBRANCH  18  19
ENDBRANCH  15  18
ENDBRANCH  10  12
ENDBRANCH   9  10
BRANCH   7  27
HETATM   27  C8  RAL  6541       1.668  33.060 235.967  1.00 20.00    -0.018 A 
HETATM   28  C13 RAL  6541       2.405  32.473 234.946  1.00 20.00     0.015 A 
HETATM   29  C12 RAL  6541       2.066  31.216 234.449  1.00 20.00     0.037 A 
HETATM   30  C11 RAL  6541       0.980  30.530 234.975  1.00 20.00     0.065 A 
HETATM   31  C10 RAL  6541       0.239  31.105 235.993  1.00 20.00     0.037 A 
HETATM   32  C9  RAL  6541       0.605  32.368 236.472  1.00 20.00     0.015 A 
BRANCH  30  33
HETATM   33  O11 RAL  6541       0.634  29.280 234.494  1.00 20.00    -0.361 OA
ATOM     34  H11 RAL  6541       1.038  28.503 234.863  1.00  0.00     0.217 HD
ENDBRANCH  30  33
ENDBRANCH   7  27
BRANCH   3  35
HETATM   35  O3  RAL  6541       4.240  39.589 239.057  1.00 20.00    -0.361 OA
ATOM     36  H3  RAL  6541       4.495  39.383 239.949  1.00  0.00     0.217 HD
ENDBRANCH   3  35
TORSDOF 9
ENDMDL
MODEL 8
REMARK VINA RESULT:      -7.4      3.663      7.190
REMARK  9 active torsions:
REMARK  status: ('A' for Active; 'I' for Inactive)
REMARK    1  A    between atoms: C3_3  and  O3_4 
REMARK    2  A    between atoms: C7_9  and  C8_10 
REMARK    3  A    between atoms: C11_13  and  O11_14 
REMARK    4  A    between atoms: C15_19  and  C16_20 
REMARK    5  A    between atoms: C16_20  and  C17_22 
REMARK    6  A    between atoms: C20_25  and  O23_28 
REMARK    7  A    between atoms: C24_29  and  O23_28 
REMARK    8  A    between atoms: C24_29  and  C25_30 
REMARK    9  A    between atoms: C25_30  and  N26_31 
ROOT
HETATM    1  C1  RAL  6541      -0.465  32.950 230.672  1.00 20.00     0.016 A 
HETATM    2  C2  RAL  6541       0.072  31.808 230.077  1.00 20.00     0.037 A 
HETATM    3  C3  RAL  6541       0.460  31.871 228.744  1.00 20.00     0.067 A 
HETATM    4  C4  RAL  6541       0.317  33.078 228.025  1.00 20.00     0.056 A 
HETATM    5  C5  RAL  6541      -0.193  34.183 228.617  1.00 20.00     0.019 A 
HETATM    6  S6  RAL  6541      -0.450  35.727 228.010  1.00 20.00    -0.088 SA
HETATM    7  C7  RAL  6541      -1.078  36.447 229.386  1.00 20.00     0.031 A 
HETATM    8  C14 RAL  6541      -0.608  34.135 229.976  1.00 20.00    -0.003 A 
HETATM    9  C15 RAL  6541      -1.108  35.451 230.403  1.00 20.00     0.044 A 
ENDROOT
BRANCH   9  10
HETATM   10  C16 RAL  6541      -1.608  35.725 231.673  1.00 20.00     0.194 C 
HETATM   11  O16 RAL  6541      -2.730  35.273 231.966  1.00 20.00    -0.287 OA
BRANCH  10  12
HETATM   12  C17 RAL  6541      -0.872  36.521 232.650  1.00 20.00     0.015 A 
HETATM   13  C18 RAL  6541      -1.526  37.433 233.476  1.00 20.00     0.018 A 
HETATM   14  C19 RAL  6541      -0.863  38.232 234.440  1.00 20.00     0.037 A 
HETATM   15  C20 RAL  6541       0.511  38.069 234.521  1.00 20.00     0.068 A 
HETATM   16  C21 RAL  6541       1.157  37.166 233.692  1.00 20.00     0.037 A 
HETATM   17  C22 RAL  6541       0.502  36.397 232.778  1.00 20.00     0.018 A 
BRANCH  15  18
HETATM   18  O23 RAL  6541       1.416  38.713 235.361  1.00 20.00    -0.349 OA
BRANCH  18  19
HETATM   19  C24 RAL  6541       0.945  39.012 236.653  1.00 20.00     0.206 C 
BRANCH  19  20
HETATM   20  C25 RAL  6541       1.236  37.768 237.482  1.00 20.00     0.299 C 
BRANCH  20  21
HETATM   21  N26 RAL  6541       1.998  37.904 238.738  1.00 20.00     0.090 N 
HETATM   22  C27 RAL  6541       3.067  38.900 238.464  1.00 20.00     0.272 C 
HETATM   23  C28 RAL  6541       3.917  39.202 239.697  1.00 20.00     0.030 C 
HETATM   24  C29 RAL  6541       4.589  37.901 240.183  1.00 20.00     0.003 C 
HETATM   25  C30 RAL  6541       3.487  36.870 240.435  1.00 20.00     0.030 C 
HETATM   26  C31 RAL  6541       2.635  36.654 239.177  1.00 20.00     0.272 C 
ENDBRANCH  20  21
ENDBRANCH  19  20
ENDBRANCH  18  19
ENDBRANCH  15  18
ENDBRANCH  10  12
ENDBRANCH   9  10
BRANCH   7  27
HETATM   27  C8  RAL  6541      -1.521  37.866 229.470  1.00 20.00    -0.018 A 
HETATM   28  C13 RAL  6541      -2.862  38.194 229.317  1.00 20.00     0.015 A 
HETATM   29  C12 RAL  6541      -3.289  39.518 229.381  1.00 20.00     0.037 A 
HETATM   30  C11 RAL  6541      -2.370  40.534 229.601  1.00 20.00     0.065 A 
HETATM   31  C10 RAL  6541      -1.031  40.221 229.756  1.00 20.00     0.037 A 
HETATM   32  C9  RAL  6541      -0.633  38.881 229.689  1.00 20.00     0.015 A 
BRANCH  30  33
HETATM   33  O11 RAL  6541      -2.780  41.855 229.670  1.00 20.00    -0.361 OA
ATOM     34  H11 RAL  6541      -2.545  42.459 228.976  1.00  0.00     0.217 HD
ENDBRANCH  30  33
ENDBRANCH   7  27
BRANCH   3  35
HETATM   35  O3  RAL  6541       0.977  30.738 228.149  1.00 20.00    -0.361 OA
ATOM     36  H3  RAL  6541       0.823  29.896 228.561  1.00  0.00     0.217 HD
ENDBRANCH   3  35
TORSDOF 9
ENDMDL
MODEL 9
REMARK VINA RESULT:      -7.4      4.298      9.223
REMARK  9 active torsions:
REMARK  status: ('A' for Active; 'I' for Inactive)
REMARK    1  A    between atoms: C3_3  and  O3_4 
REMARK    2  A    between atoms: C7_9  and  C8_10 
REMARK    3  A    between atoms: C11_13  and  O11_14 
REMARK    4  A    between atoms: C15_19  and  C16_20 
REMARK    5  A    between atoms: C16_20  and  C17_22 
REMARK    6  A    between atoms: C20_25  and  O23_28 
REMARK    7  A    between atoms: C24_29  and  O23_28 
REMARK    8  A    between atoms: C24_29  and  C25_30 
REMARK    9  A    between atoms: C25_30  and  N26_31 
ROOT
HETATM    1  C1  RAL  6541      -2.981  35.037 234.302  1.00 20.00     0.016 A 
HETATM    2  C2  RAL  6541      -4.227  34.427 234.452  1.00 20.00     0.037 A 
HETATM    3  C3  RAL  6541      -4.801  34.387 235.717  1.00 20.00     0.067 A 
HETATM    4  C4  RAL  6541      -4.127  34.969 236.814  1.00 20.00     0.056 A 
HETATM    5  C5  RAL  6541      -2.926  35.569 236.654  1.00 20.00     0.019 A 
HETATM    6  S6  RAL  6541      -1.935  36.343 237.766  1.00 20.00    -0.088 SA
HETATM    7  C7  RAL  6541      -0.690  36.792 236.738  1.00 20.00     0.031 A 
HETATM    8  C14 RAL  6541      -2.315  35.608 235.370  1.00 20.00    -0.003 A 
HETATM    9  C15 RAL  6541      -1.032  36.323 235.438  1.00 20.00     0.044 A 
ENDROOT
BRANCH   9  10
HETATM   10  C16 RAL  6541      -0.182  36.513 234.351  1.00 20.00     0.194 C 
HETATM   11  O16 RAL  6541       0.946  35.989 234.398  1.00 20.00    -0.287 OA
BRANCH  10  12
HETATM   12  C17 RAL  6541      -0.566  37.300 233.184  1.00 20.00     0.015 A 
HETATM   13  C18 RAL  6541      -0.122  36.960 231.907  1.00 20.00     0.018 A 
HETATM   14  C19 RAL  6541      -0.461  37.688 230.740  1.00 20.00     0.037 A 
HETATM   15  C20 RAL  6541      -1.271  38.796 230.931  1.00 20.00     0.068 A 
HETATM   16  C21 RAL  6541      -1.703  39.133 232.204  1.00 20.00     0.037 A 
HETATM   17  C22 RAL  6541      -1.377  38.416 233.315  1.00 20.00     0.018 A 
BRANCH  15  18
HETATM   18  O23 RAL  6541      -1.758  39.693 229.983  1.00 20.00    -0.349 OA
BRANCH  18  19
HETATM   19  C24 RAL  6541      -1.502  41.053 230.242  1.00 20.00     0.206 C 
BRANCH  19  20
HETATM   20  C25 RAL  6541      -0.734  41.552 229.025  1.00 20.00     0.299 C 
BRANCH  20  21
HETATM   21  N26 RAL  6541       0.621  42.105 229.208  1.00 20.00     0.090 N 
HETATM   22  C27 RAL  6541       0.435  43.493 229.706  1.00 20.00     0.272 C 
HETATM   23  C28 RAL  6541       1.759  44.191 230.008  1.00 20.00     0.030 C 
HETATM   24  C29 RAL  6541       2.605  44.257 228.719  1.00 20.00     0.003 C 
HETATM   25  C30 RAL  6541       2.770  42.829 228.194  1.00 20.00     0.030 C 
HETATM   26  C31 RAL  6541       1.405  42.164 227.966  1.00 20.00     0.272 C 
ENDBRANCH  20  21
ENDBRANCH  19  20
ENDBRANCH  18  19
ENDBRANCH  15  18
ENDBRANCH  10  12
ENDBRANCH   9  10
BRANCH   7  27
HETATM   27  C8  RAL  6541       0.531  37.531 237.162  1.00 20.00    -0.018 A 
HETATM   28  C13 RAL  6541       1.665  36.839 237.566  1.00 20.00     0.015 A 
HETATM   29  C12 RAL  6541       2.811  37.517 237.977  1.00 20.00     0.037 A 
HETATM   30  C11 RAL  6541       2.832  38.904 237.986  1.00 20.00     0.065 A 
HETATM   31  C10 RAL  6541       1.708  39.606 237.584  1.00 20.00     0.037 A 
HETATM   32  C9  RAL  6541       0.573  38.896 237.176  1.00 20.00     0.015 A 
BRANCH  30  33
HETATM   33  O11 RAL  6541       3.964  39.591 238.389  1.00 20.00    -0.361 OA
ATOM     34  H11 RAL  6541       4.007  39.957 239.265  1.00  0.00     0.217 HD
ENDBRANCH  30  33
ENDBRANCH   7  27
BRANCH   3  35
HETATM   35  O3  RAL  6541      -6.025  33.771 235.870  1.00 20.00    -0.361 OA
ATOM     36  H3  RAL  6541      -6.814  34.298 235.803  1.00  0.00     0.217 HD
ENDBRANCH   3  35
TORSDOF 9
ENDMDL
