MODEL 1
REMARK VINA RESULT:      -7.2      0.000      0.000
REMARK  0 active torsions:
REMARK  status: ('A' for Active; 'I' for Inactive)
ROOT
ATOM      1  N1  UNK     1       2.536  31.944 236.240  1.00  0.00     0.084 N 
ATOM      2  C1  UNK     1       1.507  33.720 234.942  1.00  0.00     0.065 C 
ATOM      3  C2  UNK     1       1.288  32.366 235.602  1.00  0.00     0.276 C 
ATOM      4  C3  UNK     1       2.436  30.531 236.633  1.00  0.00     0.309 C 
ATOM      5  C4  UNK     1       2.723  32.791 237.426  1.00  0.00     0.276 C 
ATOM      6  C5  UNK     1       3.009  34.225 236.970  1.00  0.00     0.065 C 
ATOM      7  C6  UNK     1       2.002  34.735 235.947  1.00  0.00    -0.065 C 
ATOM      8  C7  UNK     1       1.579  36.027 235.919  1.00  0.00    -0.012 C 
ATOM      9  C8  UNK     1       0.592  36.513 234.893  1.00  0.00    -0.015 A 
ATOM     10  C9  UNK     1       0.911  36.508 233.532  1.00  0.00     0.013 A 
ATOM     11  C10 UNK     1       0.007  36.947 232.579  1.00  0.00     0.001 A 
ATOM     12  C11 UNK     1      -1.231  37.419 232.987  1.00  0.00     0.001 A 
ATOM     13  C12 UNK     1      -1.551  37.448 234.342  1.00  0.00     0.012 A 
ATOM     14  C13 UNK     1      -0.641  37.007 235.297  1.00  0.00    -0.025 A 
ATOM     15  C14 UNK     1      -1.060  37.064 236.721  1.00  0.00     0.013 C 
ATOM     16  C15 UNK     1      -0.284  37.367 237.765  1.00  0.00     0.013 C 
ATOM     17  C16 UNK     1       1.165  37.689 237.751  1.00  0.00    -0.025 A 
ATOM     18  C17 UNK     1       2.066  37.058 236.901  1.00  0.00    -0.015 A 
ATOM     19  C18 UNK     1       3.419  37.416 236.945  1.00  0.00     0.013 A 
ATOM     20  C19 UNK     1       3.875  38.364 237.851  1.00  0.00     0.001 A 
ATOM     21  C20 UNK     1       2.969  38.976 238.708  1.00  0.00     0.001 A 
ATOM     22  C21 UNK     1       1.623  38.636 238.661  1.00  0.00     0.012 A 
ENDROOT
TORSDOF 0
ENDMDL
MODEL 2
REMARK VINA RESULT:      -7.1      2.858      5.829
REMARK  0 active torsions:
REMARK  status: ('A' for Active; 'I' for Inactive)
ROOT
ATOM      1  N1  UNK     1      -2.188  35.952 238.067  1.00  0.00     0.084 N 
ATOM      2  C1  UNK     1      -0.187  34.692 237.509  1.00  0.00     0.065 C 
ATOM      3  C2  UNK     1      -1.592  34.615 238.091  1.00  0.00     0.276 C 
ATOM      4  C3  UNK     1      -3.416  35.960 238.875  1.00  0.00     0.309 C 
ATOM      5  C4  UNK     1      -2.497  36.264 236.665  1.00  0.00     0.276 C 
ATOM      6  C5  UNK     1      -1.184  36.431 235.893  1.00  0.00     0.065 C 
ATOM      7  C6  UNK     1      -0.214  35.278 236.115  1.00  0.00    -0.065 C 
ATOM      8  C7  UNK     1       0.598  34.806 235.131  1.00  0.00    -0.012 C 
ATOM      9  C8  UNK     1       1.557  33.673 235.373  1.00  0.00    -0.015 A 
ATOM     10  C9  UNK     1       2.611  33.808 236.282  1.00  0.00     0.013 A 
ATOM     11  C10 UNK     1       3.496  32.768 236.518  1.00  0.00     0.001 A 
ATOM     12  C11 UNK     1       3.343  31.579 235.823  1.00  0.00     0.001 A 
ATOM     13  C12 UNK     1       2.310  31.442 234.900  1.00  0.00     0.012 A 
ATOM     14  C13 UNK     1       1.422  32.486 234.665  1.00  0.00    -0.025 A 
ATOM     15  C14 UNK     1       0.344  32.260 233.670  1.00  0.00     0.013 C 
ATOM     16  C15 UNK     1      -0.142  33.155 232.806  1.00  0.00     0.013 C 
ATOM     17  C16 UNK     1       0.261  34.577 232.657  1.00  0.00    -0.025 A 
ATOM     18  C17 UNK     1       0.598  35.380 233.739  1.00  0.00    -0.015 A 
ATOM     19  C18 UNK     1       0.969  36.712 233.520  1.00  0.00     0.013 A 
ATOM     20  C19 UNK     1       0.968  37.247 232.239  1.00  0.00     0.001 A 
ATOM     21  C20 UNK     1       0.613  36.441 231.164  1.00  0.00     0.001 A 
ATOM     22  C21 UNK     1       0.257  35.114 231.374  1.00  0.00     0.012 A 
ENDROOT
TORSDOF 0
ENDMDL
MODEL 3
REMARK VINA RESULT:      -7.1      2.599      5.580
REMARK  0 active torsions:
REMARK  status: ('A' for Active; 'I' for Inactive)
ROOT
ATOM      1  N1  UNK     1      -2.264  35.980 236.729  1.00  0.00     0.084 N 
ATOM      2  C1  UNK     1      -0.188  37.073 237.359  1.00  0.00     0.065 C 
ATOM      3  C2  UNK     1      -1.648  36.853 237.730  1.00  0.00     0.276 C 
ATOM      4  C3  UNK     1      -3.724  35.984 236.901  1.00  0.00     0.309 C 
ATOM      5  C4  UNK     1      -1.728  34.630 236.944  1.00  0.00     0.276 C 
ATOM      6  C5  UNK     1      -0.241  34.621 236.576  1.00  0.00     0.065 C 
ATOM      7  C6  UNK     1       0.539  35.753 237.231  1.00  0.00    -0.065 C 
ATOM      8  C7  UNK     1       1.820  35.604 237.664  1.00  0.00    -0.012 C 
ATOM      9  C8  UNK     1       2.577  36.738 238.300  1.00  0.00    -0.015 A 
ATOM     10  C9  UNK     1       2.877  37.895 237.574  1.00  0.00     0.013 A 
ATOM     11  C10 UNK     1       3.567  38.948 238.152  1.00  0.00     0.001 A 
ATOM     12  C11 UNK     1       3.986  38.841 239.470  1.00  0.00     0.001 A 
ATOM     13  C12 UNK     1       3.710  37.685 240.194  1.00  0.00     0.012 A 
ATOM     14  C13 UNK     1       3.016  36.629 239.612  1.00  0.00    -0.025 A 
ATOM     15  C14 UNK     1       2.757  35.432 240.453  1.00  0.00     0.013 C 
ATOM     16  C15 UNK     1       2.770  34.160 240.049  1.00  0.00     0.013 C 
ATOM     17  C16 UNK     1       3.021  33.650 238.677  1.00  0.00    -0.025 A 
ATOM     18  C17 UNK     1       2.568  34.304 237.538  1.00  0.00    -0.015 A 
ATOM     19  C18 UNK     1       2.845  33.763 236.277  1.00  0.00     0.013 A 
ATOM     20  C19 UNK     1       3.532  32.562 236.154  1.00  0.00     0.001 A 
ATOM     21  C20 UNK     1       3.966  31.907 237.300  1.00  0.00     0.001 A 
ATOM     22  C21 UNK     1       3.707  32.446 238.554  1.00  0.00     0.012 A 
ENDROOT
TORSDOF 0
ENDMDL
MODEL 4
REMARK VINA RESULT:      -7.1      2.124      4.586
REMARK  0 active torsions:
REMARK  status: ('A' for Active; 'I' for Inactive)
ROOT
ATOM      1  N1  UNK     1       0.289  36.107 231.640  1.00  0.00     0.084 N 
ATOM      2  C1  UNK     1      -0.035  34.949 233.750  1.00  0.00     0.065 C 
ATOM      3  C2  UNK     1       0.522  34.842 232.338  1.00  0.00     0.276 C 
ATOM      4  C3  UNK     1       0.555  35.935 230.204  1.00  0.00     0.309 C 
ATOM      5  C4  UNK     1       1.210  37.096 232.215  1.00  0.00     0.276 C 
ATOM      6  C5  UNK     1       0.787  37.387 233.658  1.00  0.00     0.065 C 
ATOM      7  C6  UNK     1       0.576  36.124 234.482  1.00  0.00    -0.065 C 
ATOM      8  C7  UNK     1       0.897  36.049 235.801  1.00  0.00    -0.012 C 
ATOM      9  C8  UNK     1       0.671  34.794 236.600  1.00  0.00    -0.015 A 
ATOM     10  C9  UNK     1      -0.620  34.301 236.809  1.00  0.00     0.013 A 
ATOM     11  C10 UNK     1      -0.840  33.142 237.537  1.00  0.00     0.001 A 
ATOM     12  C11 UNK     1       0.243  32.473 238.085  1.00  0.00     0.001 A 
ATOM     13  C12 UNK     1       1.531  32.968 237.901  1.00  0.00     0.012 A 
ATOM     14  C13 UNK     1       1.749  34.130 237.169  1.00  0.00    -0.025 A 
ATOM     15  C14 UNK     1       3.153  34.590 237.014  1.00  0.00     0.013 C 
ATOM     16  C15 UNK     1       3.578  35.856 237.007  1.00  0.00     0.013 C 
ATOM     17  C16 UNK     1       2.755  37.086 237.128  1.00  0.00    -0.025 A 
ATOM     18  C17 UNK     1       1.495  37.207 236.554  1.00  0.00    -0.015 A 
ATOM     19  C18 UNK     1       0.778  38.399 236.712  1.00  0.00     0.013 A 
ATOM     20  C19 UNK     1       1.326  39.472 237.402  1.00  0.00     0.001 A 
ATOM     21  C20 UNK     1       2.593  39.347 237.958  1.00  0.00     0.001 A 
ATOM     22  C21 UNK     1       3.305  38.162 237.817  1.00  0.00     0.012 A 
ENDROOT
TORSDOF 0
ENDMDL
MODEL 5
REMARK VINA RESULT:      -6.9      2.417      3.660
REMARK  0 active torsions:
REMARK  status: ('A' for Active; 'I' for Inactive)
ROOT
ATOM      1  N1  UNK     1      -3.187  34.211 237.372  1.00  0.00     0.084 N 
ATOM      2  C1  UNK     1      -1.994  34.420 235.267  1.00  0.00     0.065 C 
ATOM      3  C2  UNK     1      -3.257  34.792 236.031  1.00  0.00     0.276 C 
ATOM      4  C3  UNK     1      -4.502  34.311 238.023  1.00  0.00     0.309 C 
ATOM      5  C4  UNK     1      -2.186  34.979 238.125  1.00  0.00     0.276 C 
ATOM      6  C5  UNK     1      -0.801  34.704 237.531  1.00  0.00     0.065 C 
ATOM      7  C6  UNK     1      -0.760  34.870 236.017  1.00  0.00    -0.065 C 
ATOM      8  C7  UNK     1       0.322  35.374 235.366  1.00  0.00    -0.012 C 
ATOM      9  C8  UNK     1       0.347  35.521 233.869  1.00  0.00    -0.015 A 
ATOM     10  C9  UNK     1       0.276  34.399 233.039  1.00  0.00     0.013 A 
ATOM     11  C10 UNK     1       0.290  34.522 231.659  1.00  0.00     0.001 A 
ATOM     12  C11 UNK     1       0.399  35.784 231.093  1.00  0.00     0.001 A 
ATOM     13  C12 UNK     1       0.491  36.905 231.912  1.00  0.00     0.012 A 
ATOM     14  C13 UNK     1       0.476  36.779 233.297  1.00  0.00    -0.025 A 
ATOM     15  C14 UNK     1       0.573  38.024 234.101  1.00  0.00     0.013 C 
ATOM     16  C15 UNK     1       1.227  38.176 235.255  1.00  0.00     0.013 C 
ATOM     17  C16 UNK     1       1.982  37.142 236.009  1.00  0.00    -0.025 A 
ATOM     18  C17 UNK     1       1.566  35.818 236.090  1.00  0.00    -0.015 A 
ATOM     19  C18 UNK     1       2.330  34.900 236.819  1.00  0.00     0.013 A 
ATOM     20  C19 UNK     1       3.476  35.304 237.491  1.00  0.00     0.001 A 
ATOM     21  C20 UNK     1       3.874  36.633 237.417  1.00  0.00     0.001 A 
ATOM     22  C21 UNK     1       3.128  37.547 236.684  1.00  0.00     0.012 A 
ENDROOT
TORSDOF 0
ENDMDL
MODEL 6
REMARK VINA RESULT:      -6.8      1.946      4.163
REMARK  0 active torsions:
REMARK  status: ('A' for Active; 'I' for Inactive)
ROOT
ATOM      1  N1  UNK     1       2.532  31.089 236.400  1.00  0.00     0.084 N 
ATOM      2  C1  UNK     1       0.677  32.573 236.905  1.00  0.00     0.065 C 
ATOM      3  C2  UNK     1       1.979  31.977 237.423  1.00  0.00     0.276 C 
ATOM      4  C3  UNK     1       3.623  30.290 236.978  1.00  0.00     0.309 C 
ATOM      5  C4  UNK     1       3.042  31.941 235.317  1.00  0.00     0.276 C 
ATOM      6  C5  UNK     1       1.858  32.616 234.618  1.00  0.00     0.065 C 
ATOM      7  C6  UNK     1       0.899  33.288 235.591  1.00  0.00    -0.065 C 
ATOM      8  C7  UNK     1       0.260  34.453 235.300  1.00  0.00    -0.012 C 
ATOM      9  C8  UNK     1      -0.693  35.096 236.271  1.00  0.00    -0.015 A 
ATOM     10  C9  UNK     1      -1.876  34.453 236.647  1.00  0.00     0.013 A 
ATOM     11  C10 UNK     1      -2.756  35.033 237.546  1.00  0.00     0.001 A 
ATOM     12  C11 UNK     1      -2.466  36.285 238.065  1.00  0.00     0.001 A 
ATOM     13  C12 UNK     1      -1.301  36.942 237.681  1.00  0.00     0.012 A 
ATOM     14  C13 UNK     1      -0.418  36.358 236.779  1.00  0.00    -0.025 A 
ATOM     15  C14 UNK     1       0.806  37.122 236.424  1.00  0.00     0.013 C 
ATOM     16  C15 UNK     1       1.391  37.172 235.225  1.00  0.00     0.013 C 
ATOM     17  C16 UNK     1       0.975  36.466 233.987  1.00  0.00    -0.025 A 
ATOM     18  C17 UNK     1       0.455  35.177 233.995  1.00  0.00    -0.015 A 
ATOM     19  C18 UNK     1       0.084  34.576 232.786  1.00  0.00     0.013 A 
ATOM     20  C19 UNK     1       0.265  35.238 231.579  1.00  0.00     0.001 A 
ATOM     21  C20 UNK     1       0.801  36.520 231.580  1.00  0.00     0.001 A 
ATOM     22  C21 UNK     1       1.159  37.127 232.777  1.00  0.00     0.012 A 
ENDROOT
TORSDOF 0
ENDMDL
MODEL 7
REMARK VINA RESULT:      -6.6      2.737      4.745
REMARK  0 active torsions:
REMARK  status: ('A' for Active; 'I' for Inactive)
ROOT
ATOM      1  N1  UNK     1      -3.861  32.743 235.410  1.00  0.00     0.084 N 
ATOM      2  C1  UNK     1      -2.398  33.909 233.862  1.00  0.00     0.065 C 
ATOM      3  C2  UNK     1      -3.590  34.044 234.798  1.00  0.00     0.276 C 
ATOM      4  C3  UNK     1      -5.165  32.778 236.088  1.00  0.00     0.309 C 
ATOM      5  C4  UNK     1      -2.788  32.490 236.381  1.00  0.00     0.276 C 
ATOM      6  C5  UNK     1      -1.474  32.275 235.624  1.00  0.00     0.065 C 
ATOM      7  C6  UNK     1      -1.193  33.367 234.600  1.00  0.00    -0.065 C 
ATOM      8  C7  UNK     1       0.061  33.823 234.342  1.00  0.00    -0.012 C 
ATOM      9  C8  UNK     1       0.318  34.895 233.318  1.00  0.00    -0.015 A 
ATOM     10  C9  UNK     1       0.039  34.676 231.967  1.00  0.00     0.013 A 
ATOM     11  C10 UNK     1       0.265  35.659 231.016  1.00  0.00     0.001 A 
ATOM     12  C11 UNK     1       0.798  36.875 231.414  1.00  0.00     0.001 A 
ATOM     13  C12 UNK     1       1.099  37.095 232.755  1.00  0.00     0.012 A 
ATOM     14  C13 UNK     1       0.871  36.108 233.707  1.00  0.00    -0.025 A 
ATOM     15  C14 UNK     1       1.214  36.422 235.118  1.00  0.00     0.013 C 
ATOM     16  C15 UNK     1       1.731  35.580 236.017  1.00  0.00     0.013 C 
ATOM     17  C16 UNK     1       2.057  34.144 235.826  1.00  0.00    -0.025 A 
ATOM     18  C17 UNK     1       1.276  33.292 235.055  1.00  0.00    -0.015 A 
ATOM     19  C18 UNK     1       1.648  31.949 234.921  1.00  0.00     0.013 A 
ATOM     20  C19 UNK     1       2.765  31.452 235.579  1.00  0.00     0.001 A 
ATOM     21  C20 UNK     1       3.531  32.308 236.361  1.00  0.00     0.001 A 
ATOM     22  C21 UNK     1       3.175  33.645 236.487  1.00  0.00     0.012 A 
ENDROOT
TORSDOF 0
ENDMDL
MODEL 8
REMARK VINA RESULT:      -6.6      2.718      5.688
REMARK  0 active torsions:
REMARK  status: ('A' for Active; 'I' for Inactive)
ROOT
ATOM      1  N1  UNK     1      -3.753  35.008 237.920  1.00  0.00     0.084 N 
ATOM      2  C1  UNK     1      -1.817  36.472 238.015  1.00  0.00     0.065 C 
ATOM      3  C2  UNK     1      -2.361  35.094 238.364  1.00  0.00     0.276 C 
ATOM      4  C3  UNK     1      -4.381  33.809 238.494  1.00  0.00     0.309 C 
ATOM      5  C4  UNK     1      -3.736  34.924 236.454  1.00  0.00     0.276 C 
ATOM      6  C5  UNK     1      -3.249  36.261 235.886  1.00  0.00     0.065 C 
ATOM      7  C6  UNK     1      -1.960  36.748 236.535  1.00  0.00    -0.065 C 
ATOM      8  C7  UNK     1      -0.996  37.408 235.839  1.00  0.00    -0.012 C 
ATOM      9  C8  UNK     1       0.267  37.889 236.501  1.00  0.00    -0.015 A 
ATOM     10  C9  UNK     1       0.223  38.859 237.507  1.00  0.00     0.013 A 
ATOM     11  C10 UNK     1       1.378  39.305 238.128  1.00  0.00     0.001 A 
ATOM     12  C11 UNK     1       2.603  38.793 237.727  1.00  0.00     0.001 A 
ATOM     13  C12 UNK     1       2.658  37.842 236.712  1.00  0.00     0.012 A 
ATOM     14  C13 UNK     1       1.497  37.396 236.090  1.00  0.00    -0.025 A 
ATOM     15  C14 UNK     1       1.640  36.376 235.019  1.00  0.00     0.013 C 
ATOM     16  C15 UNK     1       0.921  36.296 233.898  1.00  0.00     0.013 C 
ATOM     17  C16 UNK     1      -0.194  37.181 233.474  1.00  0.00    -0.025 A 
ATOM     18  C17 UNK     1      -1.120  37.703 234.368  1.00  0.00    -0.015 A 
ATOM     19  C18 UNK     1      -2.144  38.532 233.894  1.00  0.00     0.013 A 
ATOM     20  C19 UNK     1      -2.266  38.806 232.538  1.00  0.00     0.001 A 
ATOM     21  C20 UNK     1      -1.344  38.265 231.650  1.00  0.00     0.001 A 
ATOM     22  C21 UNK     1      -0.318  37.453 232.116  1.00  0.00     0.012 A 
ENDROOT
TORSDOF 0
ENDMDL
MODEL 9
REMARK VINA RESULT:      -6.5      2.343      4.502
REMARK  0 active torsions:
REMARK  status: ('A' for Active; 'I' for Inactive)
ROOT
ATOM      1  N1  UNK     1      -0.125  36.983 232.552  1.00  0.00     0.084 N 
ATOM      2  C1  UNK     1      -1.144  36.476 234.698  1.00  0.00     0.065 C 
ATOM      3  C2  UNK     1      -0.782  35.928 233.325  1.00  0.00     0.276 C 
ATOM      4  C3  UNK     1      -0.025  36.575 231.143  1.00  0.00     0.309 C 
ATOM      5  C4  UNK     1       1.214  37.170 233.126  1.00  0.00     0.276 C 
ATOM      6  C5  UNK     1       1.074  37.771 234.528  1.00  0.00     0.065 C 
ATOM      7  C6  UNK     1       0.081  37.016 235.401  1.00  0.00    -0.065 C 
ATOM      8  C7  UNK     1       0.264  36.847 236.738  1.00  0.00    -0.012 C 
ATOM      9  C8  UNK     1      -0.735  36.106 237.585  1.00  0.00    -0.015 A 
ATOM     10  C9  UNK     1      -2.035  36.592 237.749  1.00  0.00     0.013 A 
ATOM     11  C10 UNK     1      -2.965  35.915 238.521  1.00  0.00     0.001 A 
ATOM     12  C11 UNK     1      -2.589  34.743 239.160  1.00  0.00     0.001 A 
ATOM     13  C12 UNK     1      -1.290  34.262 239.020  1.00  0.00     0.012 A 
ATOM     14  C13 UNK     1      -0.359  34.943 238.244  1.00  0.00    -0.025 A 
ATOM     15  C14 UNK     1       1.004  34.363 238.141  1.00  0.00     0.013 C 
ATOM     16  C15 UNK     1       2.155  35.039 238.093  1.00  0.00     0.013 C 
ATOM     17  C16 UNK     1       2.337  36.513 238.109  1.00  0.00    -0.025 A 
ATOM     18  C17 UNK     1       1.469  37.384 237.463  1.00  0.00    -0.015 A 
ATOM     19  C18 UNK     1       1.706  38.763 237.522  1.00  0.00     0.013 A 
ATOM     20  C19 UNK     1       2.817  39.265 238.186  1.00  0.00     0.001 A 
ATOM     21  C20 UNK     1       3.689  38.384 238.815  1.00  0.00     0.001 A 
ATOM     22  C21 UNK     1       3.452  37.016 238.771  1.00  0.00     0.012 A 
ENDROOT
TORSDOF 0
ENDMDL
