MODEL 1
REMARK VINA RESULT:      -7.4      0.000      0.000
REMARK  12 active torsions:
REMARK  status: ('A' for Active; 'I' for Inactive)
REMARK    1  A    between atoms: C1_2  and  C2_3 
REMARK    2  A    between atoms: C1_2  and  C11_14 
REMARK    3  A    between atoms: C2_3  and  C3_4 
REMARK    4  A    between atoms: C3_4  and  C4_5 
REMARK    5  A    between atoms: C6_7  and  O2_8 
REMARK    6  A    between atoms: C8_10  and  O3_11 
REMARK    7  A    between atoms: C11_14  and  C12_15 
REMARK    8  A    between atoms: C12_15  and  C13_17 
REMARK    9  A    between atoms: C13_17  and  C14_18 
REMARK   10  A    between atoms: C14_18  and  C15_19 
REMARK   11  A    between atoms: C17_21  and  O5_22 
REMARK   12  A    between atoms: C19_24  and  O6_25 
ROOT
ATOM      1  C11 UNK     1      -1.336  39.102 230.595  1.00  0.00     0.165 C 
ENDROOT
BRANCH   1   2
ATOM      2  C1  UNK     1      -1.854  40.409 229.984  1.00  0.00     0.156 C 
ATOM      3  O1  UNK     1      -2.953  40.712 229.400  1.00  0.00    -0.293 OA
BRANCH   2   4
ATOM      4  C2  UNK     1      -0.779  41.163 229.932  1.00  0.00     0.051 C 
BRANCH   4   5
ATOM      5  C3  UNK     1       0.061  41.286 229.039  1.00  0.00     0.015 C 
BRANCH   5   6
ATOM      6  C4  UNK     1       0.461  42.652 228.722  1.00  0.00    -0.033 A 
ATOM      7  C5  UNK     1       1.731  43.027 229.163  1.00  0.00     0.051 A 
ATOM      8  C6  UNK     1       2.087  44.356 228.947  1.00  0.00     0.102 A 
ATOM      9  C8  UNK     1       1.196  45.249 228.272  1.00  0.00     0.099 A 
ATOM     10  C9  UNK     1      -0.067  44.821 227.818  1.00  0.00     0.040 A 
ATOM     11  C10 UNK     1      -0.413  43.523 228.031  1.00  0.00     0.014 A 
BRANCH   8  12
ATOM     12  O2  UNK     1       3.327  44.762 229.415  1.00  0.00    -0.353 OA
ATOM     13  C7  UNK     1       3.998  44.022 230.456  1.00  0.00     0.210 C 
ENDBRANCH   8  12
BRANCH   9  14
ATOM     14  O3  UNK     1       1.555  46.559 228.028  1.00  0.00    -0.358 OA
ATOM     15  H7  UNK     1       2.249  46.815 228.625  1.00  0.00     0.218 HD
ENDBRANCH   9  14
ENDBRANCH   5   6
ENDBRANCH   4   5
ENDBRANCH   2   4
ENDBRANCH   1   2
BRANCH   1  16
ATOM     16  C12 UNK     1      -0.700  37.838 229.972  1.00  0.00     0.156 C 
ATOM     17  O4  UNK     1      -0.704  37.094 228.922  1.00  0.00    -0.293 OA
BRANCH  16  18
ATOM     18  C13 UNK     1      -0.132  37.526 231.085  1.00  0.00     0.051 C 
BRANCH  18  19
ATOM     19  C14 UNK     1       0.823  36.808 231.366  1.00  0.00     0.015 C 
BRANCH  19  20
ATOM     20  C15 UNK     1       0.865  36.537 232.767  1.00  0.00    -0.033 C 
ATOM     21  C16 UNK     1       1.180  37.574 233.628  1.00  0.00     0.051 C 
ATOM     22  C17 UNK     1       1.220  37.544 234.995  1.00  0.00     0.102 C 
ATOM     23  C19 UNK     1       1.009  36.270 235.424  1.00  0.00     0.099 C 
ATOM     24  C20 UNK     1       0.566  35.239 234.571  1.00  0.00     0.040 C 
ATOM     25  C21 UNK     1       0.436  35.345 233.251  1.00  0.00     0.014 C 
BRANCH  22  26
ATOM     26  O5  UNK     1       1.683  38.748 235.574  1.00  0.00    -0.353 OA
ATOM     27  C18 UNK     1       1.420  39.315 236.867  1.00  0.00     0.210 C 
ENDBRANCH  22  26
BRANCH  23  28
ATOM     28  O6  UNK     1       0.972  35.862 236.689  1.00  0.00    -0.358 OA
ATOM     29  H18 UNK     1       0.166  36.161 237.095  1.00  0.00     0.218 HD
ENDBRANCH  23  28
ENDBRANCH  19  20
ENDBRANCH  18  19
ENDBRANCH  16  18
ENDBRANCH   1  16
TORSDOF 12
ENDMDL
MODEL 2
REMARK VINA RESULT:      -7.3      1.566      8.486
REMARK  12 active torsions:
REMARK  status: ('A' for Active; 'I' for Inactive)
REMARK    1  A    between atoms: C1_2  and  C2_3 
REMARK    2  A    between atoms: C1_2  and  C11_14 
REMARK    3  A    between atoms: C2_3  and  C3_4 
REMARK    4  A    between atoms: C3_4  and  C4_5 
REMARK    5  A    between atoms: C6_7  and  O2_8 
REMARK    6  A    between atoms: C8_10  and  O3_11 
REMARK    7  A    between atoms: C11_14  and  C12_15 
REMARK    8  A    between atoms: C12_15  and  C13_17 
REMARK    9  A    between atoms: C13_17  and  C14_18 
REMARK   10  A    between atoms: C14_18  and  C15_19 
REMARK   11  A    between atoms: C17_21  and  O5_22 
REMARK   12  A    between atoms: C19_24  and  O6_25 
ROOT
ATOM      1  C11 UNK     1      -1.495  38.639 230.721  1.00  0.00     0.165 C 
ENDROOT
BRANCH   1   2
ATOM      2  C1  UNK     1      -1.755  38.298 232.193  1.00  0.00     0.156 C 
ATOM      3  O1  UNK     1      -2.313  38.950 233.144  1.00  0.00    -0.293 OA
BRANCH   2   4
ATOM      4  C2  UNK     1      -1.014  37.231 232.390  1.00  0.00     0.051 C 
BRANCH   4   5
ATOM      5  C3  UNK     1       0.209  37.125 232.505  1.00  0.00     0.015 C 
BRANCH   5   6
ATOM      6  C4  UNK     1       0.706  36.922 233.861  1.00  0.00    -0.033 A 
ATOM      7  C5  UNK     1       1.096  38.077 234.540  1.00  0.00     0.051 A 
ATOM      8  C6  UNK     1       1.658  37.888 235.799  1.00  0.00     0.102 A 
ATOM      9  C8  UNK     1       1.777  36.575 236.355  1.00  0.00     0.099 A 
ATOM     10  C9  UNK     1       1.344  35.437 235.646  1.00  0.00     0.040 A 
ATOM     11  C10 UNK     1       0.797  35.625 234.415  1.00  0.00     0.014 A 
BRANCH   8  12
ATOM     12  O2  UNK     1       2.092  39.018 236.475  1.00  0.00    -0.353 OA
ATOM     13  C7  UNK     1       1.213  39.715 237.382  1.00  0.00     0.210 C 
ENDBRANCH   8  12
BRANCH   9  14
ATOM     14  O3  UNK     1       2.304  36.382 237.615  1.00  0.00    -0.358 OA
ATOM     15  H7  UNK     1       2.390  35.451 237.785  1.00  0.00     0.218 HD
ENDBRANCH   9  14
ENDBRANCH   5   6
ENDBRANCH   4   5
ENDBRANCH   2   4
ENDBRANCH   1   2
BRANCH   1  16
ATOM     16  C12 UNK     1      -2.266  39.504 229.698  1.00  0.00     0.156 C 
ATOM     17  O4  UNK     1      -3.286  39.505 228.912  1.00  0.00    -0.293 OA
BRANCH  16  18
ATOM     18  C13 UNK     1      -1.335  40.394 229.687  1.00  0.00     0.051 C 
BRANCH  18  19
ATOM     19  C14 UNK     1      -1.297  41.570 230.033  1.00  0.00     0.015 C 
BRANCH  19  20
ATOM     20  C15 UNK     1      -0.375  42.310 229.232  1.00  0.00    -0.033 C 
ATOM     21  C16 UNK     1      -0.231  43.665 229.479  1.00  0.00     0.051 C 
ATOM     22  C17 UNK     1       0.628  44.539 228.872  1.00  0.00     0.102 C 
ATOM     23  C19 UNK     1       1.281  43.901 227.862  1.00  0.00     0.099 C 
ATOM     24  C20 UNK     1       1.236  42.503 227.684  1.00  0.00     0.040 C 
ATOM     25  C21 UNK     1       0.461  41.672 228.376  1.00  0.00     0.014 C 
BRANCH  22  26
ATOM     26  O5  UNK     1       0.451  45.881 229.280  1.00  0.00    -0.353 OA
ATOM     27  C18 UNK     1       1.143  47.071 228.871  1.00  0.00     0.210 C 
ENDBRANCH  22  26
BRANCH  23  28
ATOM     28  O6  UNK     1       2.197  44.433 227.058  1.00  0.00    -0.358 OA
ATOM     29  H18 UNK     1       3.060  44.310 227.435  1.00  0.00     0.218 HD
ENDBRANCH  23  28
ENDBRANCH  19  20
ENDBRANCH  18  19
ENDBRANCH  16  18
ENDBRANCH   1  16
TORSDOF 12
ENDMDL
MODEL 3
REMARK VINA RESULT:      -7.2      1.605      2.631
REMARK  12 active torsions:
REMARK  status: ('A' for Active; 'I' for Inactive)
REMARK    1  A    between atoms: C1_2  and  C2_3 
REMARK    2  A    between atoms: C1_2  and  C11_14 
REMARK    3  A    between atoms: C2_3  and  C3_4 
REMARK    4  A    between atoms: C3_4  and  C4_5 
REMARK    5  A    between atoms: C6_7  and  O2_8 
REMARK    6  A    between atoms: C8_10  and  O3_11 
REMARK    7  A    between atoms: C11_14  and  C12_15 
REMARK    8  A    between atoms: C12_15  and  C13_17 
REMARK    9  A    between atoms: C13_17  and  C14_18 
REMARK   10  A    between atoms: C14_18  and  C15_19 
REMARK   11  A    between atoms: C17_21  and  O5_22 
REMARK   12  A    between atoms: C19_24  and  O6_25 
ROOT
ATOM      1  C11 UNK     1      -1.179  37.850 230.122  1.00  0.00     0.165 C 
ENDROOT
BRANCH   1   2
ATOM      2  C1  UNK     1      -1.345  39.166 230.891  1.00  0.00     0.156 C 
ATOM      3  O1  UNK     1      -1.740  39.425 232.082  1.00  0.00    -0.293 OA
BRANCH   2   4
ATOM      4  C2  UNK     1      -1.247  40.078 229.950  1.00  0.00     0.051 C 
BRANCH   4   5
ATOM      5  C3  UNK     1      -1.318  41.307 230.026  1.00  0.00     0.015 C 
BRANCH   5   6
ATOM      6  C4  UNK     1      -0.333  42.052 229.251  1.00  0.00    -0.033 A 
ATOM      7  C5  UNK     1      -0.506  43.436 229.225  1.00  0.00     0.051 A 
ATOM      8  C6  UNK     1       0.372  44.149 228.414  1.00  0.00     0.102 A 
ATOM      9  C8  UNK     1       1.410  43.475 227.694  1.00  0.00     0.099 A 
ATOM     10  C9  UNK     1       1.567  42.078 227.772  1.00  0.00     0.040 A 
ATOM     11  C10 UNK     1       0.707  41.384 228.563  1.00  0.00     0.014 A 
BRANCH   8  12
ATOM     12  O2  UNK     1       0.192  45.521 228.339  1.00  0.00    -0.353 OA
ATOM     13  C7  UNK     1       0.901  46.406 229.230  1.00  0.00     0.210 C 
ENDBRANCH   8  12
BRANCH   9  14
ATOM     14  O3  UNK     1       2.304  44.179 226.913  1.00  0.00    -0.358 OA
ATOM     15  H7  UNK     1       2.923  44.635 227.472  1.00  0.00     0.218 HD
ENDBRANCH   9  14
ENDBRANCH   5   6
ENDBRANCH   4   5
ENDBRANCH   2   4
ENDBRANCH   1   2
BRANCH   1  16
ATOM     16  C12 UNK     1       0.039  37.183 229.444  1.00  0.00     0.156 C 
ATOM     17  O4  UNK     1       0.518  36.832 228.302  1.00  0.00    -0.293 OA
BRANCH  16  18
ATOM     18  C13 UNK     1       0.527  36.824 230.581  1.00  0.00     0.051 C 
BRANCH  18  19
ATOM     19  C14 UNK     1       0.419  35.805 231.255  1.00  0.00     0.015 C 
BRANCH  19  20
ATOM     20  C15 UNK     1       0.658  36.077 232.637  1.00  0.00    -0.033 C 
ATOM     21  C16 UNK     1       0.484  35.050 233.548  1.00  0.00     0.051 C 
ATOM     22  C17 UNK     1       0.711  35.080 234.896  1.00  0.00     0.102 C 
ATOM     23  C19 UNK     1       1.041  36.347 235.269  1.00  0.00     0.099 C 
ATOM     24  C20 UNK     1       1.342  37.364 234.340  1.00  0.00     0.040 C 
ATOM     25  C21 UNK     1       1.210  37.255 233.021  1.00  0.00     0.014 C 
BRANCH  22  26
ATOM     26  O5  UNK     1       0.332  33.891 235.561  1.00  0.00    -0.353 OA
ATOM     27  C18 UNK     1      -0.712  32.953 235.257  1.00  0.00     0.210 C 
ENDBRANCH  22  26
BRANCH  23  28
ATOM     28  O6  UNK     1       1.337  36.753 236.501  1.00  0.00    -0.358 OA
ATOM     29  H18 UNK     1       1.579  37.671 236.483  1.00  0.00     0.218 HD
ENDBRANCH  23  28
ENDBRANCH  19  20
ENDBRANCH  18  19
ENDBRANCH  16  18
ENDBRANCH   1  16
TORSDOF 12
ENDMDL
MODEL 4
REMARK VINA RESULT:      -7.2      3.920      7.373
REMARK  12 active torsions:
REMARK  status: ('A' for Active; 'I' for Inactive)
REMARK    1  A    between atoms: C1_2  and  C2_3 
REMARK    2  A    between atoms: C1_2  and  C11_14 
REMARK    3  A    between atoms: C2_3  and  C3_4 
REMARK    4  A    between atoms: C3_4  and  C4_5 
REMARK    5  A    between atoms: C6_7  and  O2_8 
REMARK    6  A    between atoms: C8_10  and  O3_11 
REMARK    7  A    between atoms: C11_14  and  C12_15 
REMARK    8  A    between atoms: C12_15  and  C13_17 
REMARK    9  A    between atoms: C13_17  and  C14_18 
REMARK   10  A    between atoms: C14_18  and  C15_19 
REMARK   11  A    between atoms: C17_21  and  O5_22 
REMARK   12  A    between atoms: C19_24  and  O6_25 
ROOT
ATOM      1  C11 UNK     1      -2.825  39.651 229.919  1.00  0.00     0.165 C 
ENDROOT
BRANCH   1   2
ATOM      2  C1  UNK     1      -4.079  38.963 229.365  1.00  0.00     0.156 C 
ATOM      3  O1  UNK     1      -4.569  37.793 229.542  1.00  0.00    -0.293 OA
BRANCH   2   4
ATOM      4  C2  UNK     1      -4.456  39.764 228.394  1.00  0.00     0.051 C 
BRANCH   4   5
ATOM      5  C3  UNK     1      -4.378  40.991 228.302  1.00  0.00     0.015 C 
BRANCH   5   6
ATOM      6  C4  UNK     1      -3.909  41.506 227.022  1.00  0.00    -0.033 A 
ATOM      7  C5  UNK     1      -4.244  40.741 225.903  1.00  0.00     0.051 A 
ATOM      8  C6  UNK     1      -3.724  41.174 224.687  1.00  0.00     0.102 A 
ATOM      9  C8  UNK     1      -2.929  42.362 224.615  1.00  0.00     0.099 A 
ATOM     10  C9  UNK     1      -2.638  43.121 225.765  1.00  0.00     0.040 A 
ATOM     11  C10 UNK     1      -3.146  42.695 226.953  1.00  0.00     0.014 A 
BRANCH   8  12
ATOM     12  O2  UNK     1      -4.007  40.406 223.568  1.00  0.00    -0.353 OA
ATOM     13  C7  UNK     1      -4.933  39.302 223.651  1.00  0.00     0.210 C 
ENDBRANCH   8  12
BRANCH   9  14
ATOM     14  O3  UNK     1      -2.436  42.813 223.407  1.00  0.00    -0.358 OA
ATOM     15  H7  UNK     1      -2.994  43.507 223.076  1.00  0.00     0.218 HD
ENDBRANCH   9  14
ENDBRANCH   5   6
ENDBRANCH   4   5
ENDBRANCH   2   4
ENDBRANCH   1   2
BRANCH   1  16
ATOM     16  C12 UNK     1      -1.323  39.292 229.859  1.00  0.00     0.156 C 
ATOM     17  O4  UNK     1      -0.505  38.306 229.730  1.00  0.00    -0.293 OA
BRANCH  16  18
ATOM     18  C13 UNK     1      -0.982  40.483 230.212  1.00  0.00     0.051 C 
BRANCH  18  19
ATOM     19  C14 UNK     1      -1.356  41.598 229.865  1.00  0.00     0.015 C 
BRANCH  19  20
ATOM     20  C15 UNK     1      -0.348  42.261 229.100  1.00  0.00    -0.033 C 
ATOM     21  C16 UNK     1      -0.336  43.645 229.090  1.00  0.00     0.051 C 
ATOM     22  C17 UNK     1       0.566  44.469 228.475  1.00  0.00     0.102 C 
ATOM     23  C19 UNK     1       1.433  43.720 227.741  1.00  0.00     0.099 C 
ATOM     24  C20 UNK     1       1.508  42.316 227.844  1.00  0.00     0.040 C 
ATOM     25  C21 UNK     1       0.670  41.558 228.546  1.00  0.00     0.014 C 
BRANCH  22  26
ATOM     26  O5  UNK     1       0.234  45.841 228.568  1.00  0.00    -0.353 OA
ATOM     27  C18 UNK     1       1.044  46.965 228.947  1.00  0.00     0.210 C 
ENDBRANCH  22  26
BRANCH  23  28
ATOM     28  O6  UNK     1       2.448  44.178 227.014  1.00  0.00    -0.358 OA
ATOM     29  H18 UNK     1       2.426  45.128 227.001  1.00  0.00     0.218 HD
ENDBRANCH  23  28
ENDBRANCH  19  20
ENDBRANCH  18  19
ENDBRANCH  16  18
ENDBRANCH   1  16
TORSDOF 12
ENDMDL
MODEL 5
REMARK VINA RESULT:      -7.1      4.900     10.291
REMARK  12 active torsions:
REMARK  status: ('A' for Active; 'I' for Inactive)
REMARK    1  A    between atoms: C1_2  and  C2_3 
REMARK    2  A    between atoms: C1_2  and  C11_14 
REMARK    3  A    between atoms: C2_3  and  C3_4 
REMARK    4  A    between atoms: C3_4  and  C4_5 
REMARK    5  A    between atoms: C6_7  and  O2_8 
REMARK    6  A    between atoms: C8_10  and  O3_11 
REMARK    7  A    between atoms: C11_14  and  C12_15 
REMARK    8  A    between atoms: C12_15  and  C13_17 
REMARK    9  A    between atoms: C13_17  and  C14_18 
REMARK   10  A    between atoms: C14_18  and  C15_19 
REMARK   11  A    between atoms: C17_21  and  O5_22 
REMARK   12  A    between atoms: C19_24  and  O6_25 
ROOT
ATOM      1  C11 UNK     1       2.749  38.125 237.018  1.00  0.00     0.165 C 
ENDROOT
BRANCH   1   2
ATOM      2  C1  UNK     1       3.455  37.634 238.288  1.00  0.00     0.156 C 
ATOM      3  O1  UNK     1       4.090  38.251 239.214  1.00  0.00    -0.293 OA
BRANCH   2   4
ATOM      4  C2  UNK     1       3.519  36.333 238.112  1.00  0.00     0.051 C 
BRANCH   4   5
ATOM      5  C3  UNK     1       2.677  35.551 237.667  1.00  0.00     0.015 C 
BRANCH   5   6
ATOM      6  C4  UNK     1       3.126  34.178 237.465  1.00  0.00    -0.033 A 
ATOM      7  C5  UNK     1       3.070  33.712 236.151  1.00  0.00     0.051 A 
ATOM      8  C6  UNK     1       3.408  32.375 235.960  1.00  0.00     0.102 A 
ATOM      9  C8  UNK     1       3.826  31.564 237.062  1.00  0.00     0.099 A 
ATOM     10  C9  UNK     1       3.896  32.084 238.370  1.00  0.00     0.040 A 
ATOM     11  C10 UNK     1       3.563  33.389 238.554  1.00  0.00     0.014 A 
BRANCH   8  12
ATOM     12  O2  UNK     1       3.318  31.878 234.669  1.00  0.00    -0.353 OA
ATOM     13  C7  UNK     1       2.039  31.520 234.107  1.00  0.00     0.210 C 
ENDBRANCH   8  12
BRANCH   9  14
ATOM     14  O3  UNK     1       4.193  30.247 236.875  1.00  0.00    -0.358 OA
ATOM     15  H7  UNK     1       4.523  29.890 237.692  1.00  0.00     0.218 HD
ENDBRANCH   9  14
ENDBRANCH   5   6
ENDBRANCH   4   5
ENDBRANCH   2   4
ENDBRANCH   1   2
BRANCH   1  16
ATOM     16  C12 UNK     1       1.472  38.966 236.792  1.00  0.00     0.156 C 
ATOM     17  O4  UNK     1       0.688  39.819 237.353  1.00  0.00    -0.293 OA
BRANCH  16  18
ATOM     18  C13 UNK     1       1.212  38.349 235.691  1.00  0.00     0.051 C 
BRANCH  18  19
ATOM     19  C14 UNK     1       1.915  37.937 234.775  1.00  0.00     0.015 C 
BRANCH  19  20
ATOM     20  C15 UNK     1       1.219  36.970 233.989  1.00  0.00    -0.033 C 
ATOM     21  C16 UNK     1       1.278  37.079 232.610  1.00  0.00     0.051 C 
ATOM     22  C17 UNK     1       0.736  36.235 231.681  1.00  0.00     0.102 C 
ATOM     23  C19 UNK     1      -0.006  35.284 232.313  1.00  0.00     0.099 C 
ATOM     24  C20 UNK     1       0.029  35.090 233.709  1.00  0.00     0.040 C 
ATOM     25  C21 UNK     1       0.664  35.878 234.572  1.00  0.00     0.014 C 
BRANCH  22  26
ATOM     26  O5  UNK     1       0.886  36.688 230.349  1.00  0.00    -0.353 OA
ATOM     27  C18 UNK     1      -0.089  37.211 229.434  1.00  0.00     0.210 C 
ENDBRANCH  22  26
BRANCH  23  28
ATOM     28  O6  UNK     1      -0.674  34.293 231.732  1.00  0.00    -0.358 OA
ATOM     29  H18 UNK     1      -0.310  34.126 230.870  1.00  0.00     0.218 HD
ENDBRANCH  23  28
ENDBRANCH  19  20
ENDBRANCH  18  19
ENDBRANCH  16  18
ENDBRANCH   1  16
TORSDOF 12
ENDMDL
MODEL 6
REMARK VINA RESULT:      -7.1      0.699      8.430
REMARK  12 active torsions:
REMARK  status: ('A' for Active; 'I' for Inactive)
REMARK    1  A    between atoms: C1_2  and  C2_3 
REMARK    2  A    between atoms: C1_2  and  C11_14 
REMARK    3  A    between atoms: C2_3  and  C3_4 
REMARK    4  A    between atoms: C3_4  and  C4_5 
REMARK    5  A    between atoms: C6_7  and  O2_8 
REMARK    6  A    between atoms: C8_10  and  O3_11 
REMARK    7  A    between atoms: C11_14  and  C12_15 
REMARK    8  A    between atoms: C12_15  and  C13_17 
REMARK    9  A    between atoms: C13_17  and  C14_18 
REMARK   10  A    between atoms: C14_18  and  C15_19 
REMARK   11  A    between atoms: C17_21  and  O5_22 
REMARK   12  A    between atoms: C19_24  and  O6_25 
ROOT
ATOM      1  C11 UNK     1      -1.303  39.356 230.218  1.00  0.00     0.165 C 
ENDROOT
BRANCH   1   2
ATOM      2  C1  UNK     1      -1.133  37.843 230.392  1.00  0.00     0.156 C 
ATOM      3  O1  UNK     1      -1.762  36.842 229.898  1.00  0.00    -0.293 OA
BRANCH   2   4
ATOM      4  C2  UNK     1      -0.325  37.748 231.424  1.00  0.00     0.051 C 
BRANCH   4   5
ATOM      5  C3  UNK     1       0.535  36.903 231.683  1.00  0.00     0.015 C 
BRANCH   5   6
ATOM      6  C4  UNK     1       0.783  36.658 233.099  1.00  0.00    -0.033 A 
ATOM      7  C5  UNK     1       1.246  37.753 233.829  1.00  0.00     0.051 A 
ATOM      8  C6  UNK     1       1.573  37.508 235.160  1.00  0.00     0.102 A 
ATOM      9  C8  UNK     1       1.393  36.206 235.727  1.00  0.00     0.099 A 
ATOM     10  C9  UNK     1       0.895  35.135 234.960  1.00  0.00     0.040 A 
ATOM     11  C10 UNK     1       0.578  35.377 233.660  1.00  0.00     0.014 A 
BRANCH   8  12
ATOM     12  O2  UNK     1       2.076  38.571 235.894  1.00  0.00    -0.353 OA
ATOM     13  C7  UNK     1       1.234  39.288 236.820  1.00  0.00     0.210 C 
ENDBRANCH   8  12
BRANCH   9  14
ATOM     14  O3  UNK     1       1.686  35.964 237.054  1.00  0.00    -0.358 OA
ATOM     15  H7  UNK     1       0.932  36.181 237.590  1.00  0.00     0.218 HD
ENDBRANCH   9  14
ENDBRANCH   5   6
ENDBRANCH   4   5
ENDBRANCH   2   4
ENDBRANCH   1   2
BRANCH   1  16
ATOM     16  C12 UNK     1      -2.502  40.229 229.784  1.00  0.00     0.156 C 
ATOM     17  O4  UNK     1      -3.755  40.185 229.490  1.00  0.00    -0.293 OA
BRANCH  16  18
ATOM     18  C13 UNK     1      -1.740  41.247 229.577  1.00  0.00     0.051 C 
BRANCH  18  19
ATOM     19  C14 UNK     1      -0.558  41.470 229.818  1.00  0.00     0.015 C 
BRANCH  19  20
ATOM     20  C15 UNK     1      -0.076  42.568 229.043  1.00  0.00    -0.033 C 
ATOM     21  C16 UNK     1       1.161  43.103 229.360  1.00  0.00     0.051 C 
ATOM     22  C17 UNK     1       1.827  44.109 228.716  1.00  0.00     0.102 C 
ATOM     23  C19 UNK     1       1.030  44.625 227.741  1.00  0.00     0.099 C 
ATOM     24  C20 UNK     1      -0.171  44.011 227.329  1.00  0.00     0.040 C 
ATOM     25  C21 UNK     1      -0.730  42.959 227.921  1.00  0.00     0.014 C 
BRANCH  22  26
ATOM     26  O5  UNK     1       3.027  44.494 229.357  1.00  0.00    -0.353 OA
ATOM     27  C18 UNK     1       3.809  43.807 230.348  1.00  0.00     0.210 C 
ENDBRANCH  22  26
BRANCH  23  28
ATOM     28  O6  UNK     1       1.346  45.612 226.907  1.00  0.00    -0.358 OA
ATOM     29  H18 UNK     1       1.959  45.293 226.255  1.00  0.00     0.218 HD
ENDBRANCH  23  28
ENDBRANCH  19  20
ENDBRANCH  18  19
ENDBRANCH  16  18
ENDBRANCH   1  16
TORSDOF 12
ENDMDL
MODEL 7
REMARK VINA RESULT:      -7.0      5.519      8.592
REMARK  12 active torsions:
REMARK  status: ('A' for Active; 'I' for Inactive)
REMARK    1  A    between atoms: C1_2  and  C2_3 
REMARK    2  A    between atoms: C1_2  and  C11_14 
REMARK    3  A    between atoms: C2_3  and  C3_4 
REMARK    4  A    between atoms: C3_4  and  C4_5 
REMARK    5  A    between atoms: C6_7  and  O2_8 
REMARK    6  A    between atoms: C8_10  and  O3_11 
REMARK    7  A    between atoms: C11_14  and  C12_15 
REMARK    8  A    between atoms: C12_15  and  C13_17 
REMARK    9  A    between atoms: C13_17  and  C14_18 
REMARK   10  A    between atoms: C14_18  and  C15_19 
REMARK   11  A    between atoms: C17_21  and  O5_22 
REMARK   12  A    between atoms: C19_24  and  O6_25 
ROOT
ATOM      1  C11 UNK     1       3.203  37.493 236.623  1.00  0.00     0.165 C 
ENDROOT
BRANCH   1   2
ATOM      2  C1  UNK     1       2.097  38.439 236.142  1.00  0.00     0.156 C 
ATOM      3  O1  UNK     1       1.541  39.460 236.680  1.00  0.00    -0.293 OA
BRANCH   2   4
ATOM      4  C2  UNK     1       1.599  37.813 235.099  1.00  0.00     0.051 C 
BRANCH   4   5
ATOM      5  C3  UNK     1       1.117  36.682 235.009  1.00  0.00     0.015 C 
BRANCH   5   6
ATOM      6  C4  UNK     1       0.796  36.231 233.660  1.00  0.00    -0.033 A 
ATOM      7  C5  UNK     1       0.212  34.967 233.569  1.00  0.00     0.051 A 
ATOM      8  C6  UNK     1      -0.016  34.488 232.282  1.00  0.00     0.102 A 
ATOM      9  C8  UNK     1       0.304  35.288 231.139  1.00  0.00     0.099 A 
ATOM     10  C9  UNK     1       0.867  36.572 231.277  1.00  0.00     0.040 A 
ATOM     11  C10 UNK     1       1.089  37.037 232.536  1.00  0.00     0.014 A 
BRANCH   8  12
ATOM     12  O2  UNK     1      -0.555  33.216 232.166  1.00  0.00    -0.353 OA
ATOM     13  C7  UNK     1      -1.985  33.024 232.146  1.00  0.00     0.210 C 
ENDBRANCH   8  12
BRANCH   9  14
ATOM     14  O3  UNK     1       0.053  34.832 229.861  1.00  0.00    -0.358 OA
ATOM     15  H7  UNK     1      -0.865  34.963 229.652  1.00  0.00     0.218 HD
ENDBRANCH   9  14
ENDBRANCH   5   6
ENDBRANCH   4   5
ENDBRANCH   2   4
ENDBRANCH   1   2
BRANCH   1  16
ATOM     16  C12 UNK     1       3.678  37.072 238.033  1.00  0.00     0.156 C 
ATOM     17  O4  UNK     1       4.208  37.520 239.117  1.00  0.00    -0.293 OA
BRANCH  16  18
ATOM     18  C13 UNK     1       3.529  35.823 237.755  1.00  0.00     0.051 C 
BRANCH  18  19
ATOM     19  C14 UNK     1       2.668  34.998 238.043  1.00  0.00     0.015 C 
BRANCH  19  20
ATOM     20  C15 UNK     1       3.124  33.670 237.785  1.00  0.00    -0.033 C 
ATOM     21  C16 UNK     1       3.068  33.197 236.485  1.00  0.00     0.051 C 
ATOM     22  C17 UNK     1       3.502  31.989 236.015  1.00  0.00     0.102 C 
ATOM     23  C19 UNK     1       3.916  31.221 237.061  1.00  0.00     0.099 C 
ATOM     24  C20 UNK     1       4.094  31.733 238.362  1.00  0.00     0.040 C 
ATOM     25  C21 UNK     1       3.757  32.960 238.751  1.00  0.00     0.014 C 
BRANCH  22  26
ATOM     26  O5  UNK     1       3.202  31.770 234.651  1.00  0.00    -0.353 OA
ATOM     27  C18 UNK     1       1.945  31.497 234.012  1.00  0.00     0.210 C 
ENDBRANCH  22  26
BRANCH  23  28
ATOM     28  O6  UNK     1       4.408  29.988 236.985  1.00  0.00    -0.358 OA
ATOM     29  H18 UNK     1       3.727  29.361 237.197  1.00  0.00     0.218 HD
ENDBRANCH  23  28
ENDBRANCH  19  20
ENDBRANCH  18  19
ENDBRANCH  16  18
ENDBRANCH   1  16
TORSDOF 12
ENDMDL
MODEL 8
REMARK VINA RESULT:      -7.0      1.643      8.325
REMARK  12 active torsions:
REMARK  status: ('A' for Active; 'I' for Inactive)
REMARK    1  A    between atoms: C1_2  and  C2_3 
REMARK    2  A    between atoms: C1_2  and  C11_14 
REMARK    3  A    between atoms: C2_3  and  C3_4 
REMARK    4  A    between atoms: C3_4  and  C4_5 
REMARK    5  A    between atoms: C6_7  and  O2_8 
REMARK    6  A    between atoms: C8_10  and  O3_11 
REMARK    7  A    between atoms: C11_14  and  C12_15 
REMARK    8  A    between atoms: C12_15  and  C13_17 
REMARK    9  A    between atoms: C13_17  and  C14_18 
REMARK   10  A    between atoms: C14_18  and  C15_19 
REMARK   11  A    between atoms: C17_21  and  O5_22 
REMARK   12  A    between atoms: C19_24  and  O6_25 
ROOT
ATOM      1  C11 UNK     1      -1.034  38.614 229.711  1.00  0.00     0.165 C 
ENDROOT
BRANCH   1   2
ATOM      2  C1  UNK     1      -0.027  37.474 229.519  1.00  0.00     0.156 C 
ATOM      3  O1  UNK     1       0.532  36.984 228.476  1.00  0.00    -0.293 OA
BRANCH   2   4
ATOM      4  C2  UNK     1      -0.033  36.870 230.686  1.00  0.00     0.051 C 
BRANCH   4   5
ATOM      5  C3  UNK     1       0.893  36.651 231.470  1.00  0.00     0.015 C 
BRANCH   5   6
ATOM      6  C4  UNK     1       0.603  36.884 232.880  1.00  0.00    -0.033 A 
ATOM      7  C5  UNK     1      -0.579  36.313 233.356  1.00  0.00     0.051 A 
ATOM      8  C6  UNK     1      -0.913  36.605 234.675  1.00  0.00     0.102 A 
ATOM      9  C8  UNK     1      -0.051  37.413 235.484  1.00  0.00     0.099 A 
ATOM     10  C9  UNK     1       1.148  37.946 234.971  1.00  0.00     0.040 A 
ATOM     11  C10 UNK     1       1.471  37.661 233.682  1.00  0.00     0.014 A 
BRANCH   8  12
ATOM     12  O2  UNK     1      -2.104  36.085 235.156  1.00  0.00    -0.353 OA
ATOM     13  C7  UNK     1      -3.347  36.786 234.952  1.00  0.00     0.210 C 
ENDBRANCH   8  12
BRANCH   9  14
ATOM     14  O3  UNK     1      -0.360  37.681 236.802  1.00  0.00    -0.358 OA
ATOM     15  H7  UNK     1       0.332  37.352 237.363  1.00  0.00     0.218 HD
ENDBRANCH   9  14
ENDBRANCH   5   6
ENDBRANCH   4   5
ENDBRANCH   2   4
ENDBRANCH   1   2
BRANCH   1  16
ATOM     16  C12 UNK     1      -1.470  39.426 230.951  1.00  0.00     0.156 C 
ATOM     17  O4  UNK     1      -2.026  39.321 232.108  1.00  0.00    -0.293 OA
BRANCH  16  18
ATOM     18  C13 UNK     1      -1.232  40.543 230.355  1.00  0.00     0.051 C 
BRANCH  18  19
ATOM     19  C14 UNK     1      -1.886  41.235 229.582  1.00  0.00     0.015 C 
BRANCH  19  20
ATOM     20  C15 UNK     1      -1.064  42.222 228.958  1.00  0.00    -0.033 C 
ATOM     21  C16 UNK     1       0.152  42.530 229.544  1.00  0.00     0.051 C 
ATOM     22  C17 UNK     1       1.106  43.395 229.085  1.00  0.00     0.102 C 
ATOM     23  C19 UNK     1       0.639  44.036 227.978  1.00  0.00     0.099 C 
ATOM     24  C20 UNK     1      -0.536  43.642 227.305  1.00  0.00     0.040 C 
ATOM     25  C21 UNK     1      -1.385  42.713 227.735  1.00  0.00     0.014 C 
BRANCH  22  26
ATOM     26  O5  UNK     1       2.191  43.566 229.975  1.00  0.00    -0.353 OA
ATOM     27  C18 UNK     1       3.591  43.738 229.706  1.00  0.00     0.210 C 
ENDBRANCH  22  26
BRANCH  23  28
ATOM     28  O6  UNK     1       1.294  44.942 227.259  1.00  0.00    -0.358 OA
ATOM     29  H18 UNK     1       2.214  44.932 227.496  1.00  0.00     0.218 HD
ENDBRANCH  23  28
ENDBRANCH  19  20
ENDBRANCH  18  19
ENDBRANCH  16  18
ENDBRANCH   1  16
TORSDOF 12
ENDMDL
MODEL 9
REMARK VINA RESULT:      -6.8      5.804      8.043
REMARK  12 active torsions:
REMARK  status: ('A' for Active; 'I' for Inactive)
REMARK    1  A    between atoms: C1_2  and  C2_3 
REMARK    2  A    between atoms: C1_2  and  C11_14 
REMARK    3  A    between atoms: C2_3  and  C3_4 
REMARK    4  A    between atoms: C3_4  and  C4_5 
REMARK    5  A    between atoms: C6_7  and  O2_8 
REMARK    6  A    between atoms: C8_10  and  O3_11 
REMARK    7  A    between atoms: C11_14  and  C12_15 
REMARK    8  A    between atoms: C12_15  and  C13_17 
REMARK    9  A    between atoms: C13_17  and  C14_18 
REMARK   10  A    between atoms: C14_18  and  C15_19 
REMARK   11  A    between atoms: C17_21  and  O5_22 
REMARK   12  A    between atoms: C19_24  and  O6_25 
ROOT
ATOM      1  C11 UNK     1       2.539  39.124 238.029  1.00  0.00     0.165 C 
ENDROOT
BRANCH   1   2
ATOM      2  C1  UNK     1       1.048  39.469 237.926  1.00  0.00     0.156 C 
ATOM      3  O1  UNK     1       0.184  39.827 238.802  1.00  0.00    -0.293 OA
BRANCH   2   4
ATOM      4  C2  UNK     1       0.725  39.049 236.724  1.00  0.00     0.051 C 
BRANCH   4   5
ATOM      5  C3  UNK     1       1.439  38.628 235.812  1.00  0.00     0.015 C 
BRANCH   5   6
ATOM      6  C4  UNK     1       0.749  37.951 234.721  1.00  0.00    -0.033 A 
ATOM      7  C5  UNK     1      -0.636  37.845 234.856  1.00  0.00     0.051 A 
ATOM      8  C6  UNK     1      -1.296  37.121 233.867  1.00  0.00     0.102 A 
ATOM      9  C8  UNK     1      -0.571  36.566 232.765  1.00  0.00     0.099 A 
ATOM     10  C9  UNK     1       0.824  36.721 232.652  1.00  0.00     0.040 A 
ATOM     11  C10 UNK     1       1.466  37.428 233.621  1.00  0.00     0.014 A 
BRANCH   8  12
ATOM     12  O2  UNK     1      -2.666  36.966 234.004  1.00  0.00    -0.353 OA
ATOM     13  C7  UNK     1      -3.213  35.783 234.622  1.00  0.00     0.210 C 
ENDBRANCH   8  12
BRANCH   9  14
ATOM     14  O3  UNK     1      -1.222  35.874 231.764  1.00  0.00    -0.358 OA
ATOM     15  H7  UNK     1      -1.706  35.149 232.143  1.00  0.00     0.218 HD
ENDBRANCH   9  14
ENDBRANCH   5   6
ENDBRANCH   4   5
ENDBRANCH   2   4
ENDBRANCH   1   2
BRANCH   1  16
ATOM     16  C12 UNK     1       3.406  38.568 239.181  1.00  0.00     0.156 C 
ATOM     17  O4  UNK     1       4.427  38.831 239.920  1.00  0.00    -0.293 OA
BRANCH  16  18
ATOM     18  C13 UNK     1       2.825  37.420 239.119  1.00  0.00     0.051 C 
BRANCH  18  19
ATOM     19  C14 UNK     1       3.217  36.299 238.813  1.00  0.00     0.015 C 
BRANCH  19  20
ATOM     20  C15 UNK     1       2.317  35.675 237.896  1.00  0.00    -0.033 C 
ATOM     21  C16 UNK     1       0.961  35.725 238.170  1.00  0.00     0.051 C 
ATOM     22  C17 UNK     1      -0.065  35.245 237.403  1.00  0.00     0.102 C 
ATOM     23  C19 UNK     1       0.447  34.578 236.332  1.00  0.00     0.099 C 
ATOM     24  C20 UNK     1       1.810  34.629 235.979  1.00  0.00     0.040 C 
ATOM     25  C21 UNK     1       2.765  35.205 236.705  1.00  0.00     0.014 C 
BRANCH  22  26
ATOM     26  O5  UNK     1      -1.332  35.360 238.018  1.00  0.00    -0.353 OA
ATOM     27  C18 UNK     1      -2.263  36.453 238.025  1.00  0.00     0.210 C 
ENDBRANCH  22  26
BRANCH  23  28
ATOM     28  O6  UNK     1      -0.252  33.985 235.369  1.00  0.00    -0.358 OA
ATOM     29  H18 UNK     1      -0.916  34.581 235.044  1.00  0.00     0.218 HD
ENDBRANCH  23  28
ENDBRANCH  19  20
ENDBRANCH  18  19
ENDBRANCH  16  18
ENDBRANCH   1  16
TORSDOF 12
ENDMDL
