MODEL 1
REMARK VINA RESULT:      -8.0      0.000      0.000
REMARK  3 active torsions:
REMARK  status: ('A' for Active; 'I' for Inactive)
REMARK    1  A    between atoms: C1_1  and  N5_18 
REMARK    2  A    between atoms: C2_2  and  C9_14 
REMARK    3  A    between atoms: C3_3  and  N7_23 
REMARK       I    between atoms: N2_6  and  C11_19 
ROOT
ATOM      1  C1  UNK     1       1.325  44.807 227.745  1.00  0.00     0.111 A 
ATOM      2  C2  UNK     1      -1.772  43.012 227.187  1.00  0.00     0.081 A 
ATOM      3  C3  UNK     1      -1.834  42.257 228.402  1.00  0.00     0.107 A 
ATOM      4  N1  UNK     1       1.169  43.333 230.034  1.00  0.00    -0.317 N 
ATOM      5  H1  UNK     1       1.131  42.793 230.898  1.00  0.00     0.170 HD
ATOM      6  N2  UNK     1       3.163  44.295 230.714  1.00  0.00    -0.274 NA
ATOM      7  N3  UNK     1       2.274  44.912 228.694  1.00  0.00    -0.322 N 
ATOM      8  H3  UNK     1       3.056  45.553 228.558  1.00  0.00     0.169 HD
ATOM      9  N4  UNK     1      -0.737  43.846 227.018  1.00  0.00    -0.347 N 
ATOM     10  H4  UNK     1      -0.686  44.416 226.174  1.00  0.00     0.166 HD
ATOM     11  C10 UNK     1       0.236  43.944 227.941  1.00  0.00     0.116 A 
ATOM     12  C11 UNK     1       2.202  44.179 229.819  1.00  0.00     0.157 A 
ATOM     13  C12 UNK     1       0.184  43.192 229.116  1.00  0.00     0.139 A 
ATOM     14  N6  UNK     1      -0.851  42.364 229.323  1.00  0.00    -0.329 N 
ATOM     15  H6  UNK     1      -0.895  41.812 230.180  1.00  0.00     0.168 HD
ATOM     16  H1  UNK     1       3.618  43.413 230.832  1.00  0.00     0.127 HD
ATOM     17  H2  UNK     1       3.827  44.974 230.404  1.00  0.00     0.127 HD
ENDROOT
BRANCH   2  18
ATOM     18  C9  UNK     1      -2.733  43.032 226.161  1.00  0.00    -0.006 A 
ATOM     19  C4  UNK     1      -2.388  42.492 224.908  1.00  0.00     0.014 A 
ATOM     20  C5  UNK     1      -3.293  42.435 223.838  1.00  0.00     0.001 A 
ATOM     21  C6  UNK     1      -4.590  42.906 224.026  1.00  0.00     0.000 A 
ATOM     22  C7  UNK     1      -4.950  43.419 225.280  1.00  0.00     0.001 A 
ATOM     23  C8  UNK     1      -4.041  43.468 226.351  1.00  0.00     0.014 A 
ENDBRANCH   2  18
BRANCH   3  24
ATOM     24  N7  UNK     1      -2.818  41.404 228.694  1.00  0.00    -0.287 NA
ATOM     25  H10 UNK     1      -3.647  41.669 228.200  1.00  0.00     0.125 HD
ATOM     26  H11 UNK     1      -2.549  40.480 228.423  1.00  0.00     0.125 HD
ENDBRANCH   3  24
BRANCH   1  27
ATOM     27  N5  UNK     1       1.403  45.531 226.640  1.00  0.00    -0.287 NA
ATOM     28  H8  UNK     1       1.332  46.502 226.871  1.00  0.00     0.125 HD
ATOM     29  H9  UNK     1       2.278  45.359 226.189  1.00  0.00     0.125 HD
ENDBRANCH   1  27
TORSDOF 3
ENDMDL
MODEL 2
REMARK VINA RESULT:      -7.9      2.133      6.619
REMARK  3 active torsions:
REMARK  status: ('A' for Active; 'I' for Inactive)
REMARK    1  A    between atoms: C1_1  and  N5_18 
REMARK    2  A    between atoms: C2_2  and  C9_14 
REMARK    3  A    between atoms: C3_3  and  N7_23 
REMARK       I    between atoms: N2_6  and  C11_19 
ROOT
ATOM      1  C1  UNK     1      -1.855  41.350 229.407  1.00  0.00     0.111 A 
ATOM      2  C2  UNK     1       1.116  43.336 228.808  1.00  0.00     0.081 A 
ATOM      3  C3  UNK     1       0.697  44.046 227.637  1.00  0.00     0.107 A 
ATOM      4  N1  UNK     1      -2.596  42.716 227.167  1.00  0.00    -0.317 N 
ATOM      5  H1  UNK     1      -2.897  43.217 226.331  1.00  0.00     0.170 HD
ATOM      6  N2  UNK     1      -4.631  41.613 227.245  1.00  0.00    -0.274 NA
ATOM      7  N3  UNK     1      -3.073  41.168 228.866  1.00  0.00    -0.322 N 
ATOM      8  H3  UNK     1      -3.727  40.517 229.301  1.00  0.00     0.169 HD
ATOM      9  N4  UNK     1       0.250  42.480 229.366  1.00  0.00    -0.347 N 
ATOM     10  H4  UNK     1       0.514  41.983 230.217  1.00  0.00     0.166 HD
ATOM     11  C10 UNK     1      -0.962  42.262 228.824  1.00  0.00     0.116 A 
ATOM     12  C11 UNK     1      -3.437  41.835 227.757  1.00  0.00     0.157 A 
ATOM     13  C12 UNK     1      -1.361  42.942 227.672  1.00  0.00     0.139 A 
ATOM     14  N6  UNK     1      -0.523  43.821 227.102  1.00  0.00    -0.329 N 
ATOM     15  H6  UNK     1      -0.809  44.321 226.260  1.00  0.00     0.168 HD
ATOM     16  H1  UNK     1      -4.535  41.245 226.320  1.00  0.00     0.127 HD
ATOM     17  H2  UNK     1      -5.121  40.955 227.817  1.00  0.00     0.127 HD
ENDROOT
BRANCH   2  18
ATOM     18  C9  UNK     1       2.333  43.492 229.494  1.00  0.00    -0.006 A 
ATOM     19  C4  UNK     1       3.506  42.985 228.904  1.00  0.00     0.014 A 
ATOM     20  C5  UNK     1       4.769  43.126 229.497  1.00  0.00     0.001 A 
ATOM     21  C6  UNK     1       4.874  43.817 230.702  1.00  0.00     0.000 A 
ATOM     22  C7  UNK     1       3.714  44.350 231.282  1.00  0.00     0.001 A 
ATOM     23  C8  UNK     1       2.452  44.210 230.680  1.00  0.00     0.014 A 
ENDBRANCH   2  18
BRANCH   3  24
ATOM     24  N7  UNK     1       1.461  44.934 226.997  1.00  0.00    -0.287 NA
ATOM     25  H10 UNK     1       1.865  45.566 227.660  1.00  0.00     0.125 HD
ATOM     26  H11 UNK     1       2.189  44.455 226.506  1.00  0.00     0.125 HD
ENDBRANCH   3  24
BRANCH   1  27
ATOM     27  N5  UNK     1      -1.503  40.689 230.500  1.00  0.00    -0.287 NA
ATOM     28  H8  UNK     1      -1.188  39.774 230.249  1.00  0.00     0.125 HD
ATOM     29  H9  UNK     1      -0.766  41.180 230.963  1.00  0.00     0.125 HD
ENDBRANCH   1  27
TORSDOF 3
ENDMDL
MODEL 3
REMARK VINA RESULT:      -6.8      2.152      3.327
REMARK  3 active torsions:
REMARK  status: ('A' for Active; 'I' for Inactive)
REMARK    1  A    between atoms: C1_1  and  N5_18 
REMARK    2  A    between atoms: C2_2  and  C9_14 
REMARK    3  A    between atoms: C3_3  and  N7_23 
REMARK       I    between atoms: N2_6  and  C11_19 
ROOT
ATOM      1  C1  UNK     1      -0.621  42.539 229.455  1.00  0.00     0.111 A 
ATOM      2  C2  UNK     1      -3.172  42.191 226.905  1.00  0.00     0.081 A 
ATOM      3  C3  UNK     1      -2.507  42.834 225.812  1.00  0.00     0.107 A 
ATOM      4  N1  UNK     1       0.592  43.769 227.346  1.00  0.00    -0.317 N 
ATOM      5  H1  UNK     1       1.068  44.232 226.572  1.00  0.00     0.170 HD
ATOM      6  N2  UNK     1       2.420  44.167 228.713  1.00  0.00    -0.274 NA
ATOM      7  N3  UNK     1       0.618  43.048 229.580  1.00  0.00    -0.322 N 
ATOM      8  H3  UNK     1       1.109  42.968 230.470  1.00  0.00     0.169 HD
ATOM      9  N4  UNK     1      -2.518  42.098 228.071  1.00  0.00    -0.347 N 
ATOM     10  H4  UNK     1      -2.958  41.619 228.856  1.00  0.00     0.166 HD
ATOM     11  C10 UNK     1      -1.290  42.626 228.225  1.00  0.00     0.116 A 
ATOM     12  C11 UNK     1       1.214  43.663 228.543  1.00  0.00     0.157 A 
ATOM     13  C12 UNK     1      -0.652  43.270 227.163  1.00  0.00     0.139 A 
ATOM     14  N6  UNK     1      -1.273  43.361 225.978  1.00  0.00    -0.329 N 
ATOM     15  H6  UNK     1      -0.812  43.829 225.198  1.00  0.00     0.168 HD
ATOM     16  H1  UNK     1       2.392  45.156 228.563  1.00  0.00     0.127 HD
ATOM     17  H2  UNK     1       2.732  43.980 229.644  1.00  0.00     0.127 HD
ENDROOT
BRANCH   2  18
ATOM     18  C9  UNK     1      -4.432  41.569 226.873  1.00  0.00    -0.006 A 
ATOM     19  C4  UNK     1      -4.600  40.356 227.568  1.00  0.00     0.014 A 
ATOM     20  C5  UNK     1      -5.829  39.683 227.621  1.00  0.00     0.001 A 
ATOM     21  C6  UNK     1      -6.934  40.246 226.986  1.00  0.00     0.000 A 
ATOM     22  C7  UNK     1      -6.782  41.468 226.315  1.00  0.00     0.001 A 
ATOM     23  C8  UNK     1      -5.548  42.141 226.270  1.00  0.00     0.014 A 
ENDBRANCH   2  18
BRANCH   3  24
ATOM     24  N7  UNK     1      -3.046  42.978 224.600  1.00  0.00    -0.287 NA
ATOM     25  H10 UNK     1      -3.983  43.319 224.689  1.00  0.00     0.125 HD
ATOM     26  H11 UNK     1      -2.503  43.628 224.069  1.00  0.00     0.125 HD
ENDBRANCH   3  24
BRANCH   1  27
ATOM     27  N5  UNK     1      -1.202  41.936 230.481  1.00  0.00    -0.287 NA
ATOM     28  H8  UNK     1      -1.389  40.982 230.244  1.00  0.00     0.125 HD
ATOM     29  H9  UNK     1      -0.596  41.969 231.274  1.00  0.00     0.125 HD
ENDBRANCH   1  27
TORSDOF 3
ENDMDL
MODEL 4
REMARK VINA RESULT:      -6.8      8.935     10.663
REMARK  3 active torsions:
REMARK  status: ('A' for Active; 'I' for Inactive)
REMARK    1  A    between atoms: C1_1  and  N5_18 
REMARK    2  A    between atoms: C2_2  and  C9_14 
REMARK    3  A    between atoms: C3_3  and  N7_23 
REMARK       I    between atoms: N2_6  and  C11_19 
ROOT
ATOM      1  C1  UNK     1       2.709  36.433 237.298  1.00  0.00     0.111 A 
ATOM      2  C2  UNK     1       0.663  36.983 234.359  1.00  0.00     0.081 A 
ATOM      3  C3  UNK     1      -0.061  38.143 234.784  1.00  0.00     0.107 A 
ATOM      4  N1  UNK     1       1.290  38.632 238.066  1.00  0.00    -0.317 N 
ATOM      5  H1  UNK     1       0.774  39.455 238.375  1.00  0.00     0.170 HD
ATOM      6  N2  UNK     1       2.424  38.578 240.085  1.00  0.00    -0.274 NA
ATOM      7  N3  UNK     1       2.913  36.994 238.504  1.00  0.00    -0.322 N 
ATOM      8  H3  UNK     1       3.610  36.595 239.134  1.00  0.00     0.169 HD
ATOM      9  N4  UNK     1       1.570  36.466 235.198  1.00  0.00    -0.347 N 
ATOM     10  H4  UNK     1       2.119  35.658 234.907  1.00  0.00     0.166 HD
ATOM     11  C10 UNK     1       1.769  36.994 236.419  1.00  0.00     0.116 A 
ATOM     12  C11 UNK     1       2.209  38.073 238.887  1.00  0.00     0.157 A 
ATOM     13  C12 UNK     1       1.048  38.113 236.840  1.00  0.00     0.139 A 
ATOM     14  N6  UNK     1       0.148  38.666 236.013  1.00  0.00    -0.329 N 
ATOM     15  H6  UNK     1      -0.382  39.484 236.314  1.00  0.00     0.168 HD
ATOM     16  H1  UNK     1       1.583  38.529 240.624  1.00  0.00     0.127 HD
ATOM     17  H2  UNK     1       3.144  38.058 240.542  1.00  0.00     0.127 HD
ENDROOT
BRANCH   2  18
ATOM     18  C9  UNK     1       0.579  36.355 233.104  1.00  0.00    -0.006 A 
ATOM     19  C4  UNK     1      -0.083  35.116 233.016  1.00  0.00     0.014 A 
ATOM     20  C5  UNK     1      -0.247  34.434 231.802  1.00  0.00     0.001 A 
ATOM     21  C6  UNK     1       0.239  35.014 230.632  1.00  0.00     0.000 A 
ATOM     22  C7  UNK     1       0.875  36.261 230.707  1.00  0.00     0.001 A 
ATOM     23  C8  UNK     1       1.031  36.943 231.926  1.00  0.00     0.014 A 
ENDBRANCH   2  18
BRANCH   3  24
ATOM     24  N7  UNK     1      -0.980  38.757 234.036  1.00  0.00    -0.287 NA
ATOM     25  H10 UNK     1      -1.862  38.738 234.507  1.00  0.00     0.125 HD
ATOM     26  H11 UNK     1      -0.703  39.706 233.882  1.00  0.00     0.125 HD
ENDBRANCH   3  24
BRANCH   1  27
ATOM     27  N5  UNK     1       3.406  35.371 236.928  1.00  0.00    -0.287 NA
ATOM     28  H8  UNK     1       3.825  35.541 236.035  1.00  0.00     0.125 HD
ATOM     29  H9  UNK     1       4.122  35.190 237.602  1.00  0.00     0.125 HD
ENDBRANCH   1  27
TORSDOF 3
ENDMDL
MODEL 5
REMARK VINA RESULT:      -6.7      8.229     10.051
REMARK  3 active torsions:
REMARK  status: ('A' for Active; 'I' for Inactive)
REMARK    1  A    between atoms: C1_1  and  N5_18 
REMARK    2  A    between atoms: C2_2  and  C9_14 
REMARK    3  A    between atoms: C3_3  and  N7_23 
REMARK       I    between atoms: N2_6  and  C11_19 
ROOT
ATOM      1  C1  UNK     1       0.988  39.277 238.166  1.00  0.00     0.111 A 
ATOM      2  C2  UNK     1      -0.066  38.157 234.885  1.00  0.00     0.081 A 
ATOM      3  C3  UNK     1       1.196  37.728 234.362  1.00  0.00     0.107 A 
ATOM      4  N1  UNK     1       3.368  38.461 237.116  1.00  0.00    -0.317 N 
ATOM      5  H1  UNK     1       4.269  38.160 236.745  1.00  0.00     0.170 HD
ATOM      6  N2  UNK     1       4.384  39.076 239.104  1.00  0.00    -0.274 NA
ATOM      7  N3  UNK     1       2.119  39.357 238.890  1.00  0.00    -0.322 N 
ATOM      8  H3  UNK     1       2.085  39.721 239.842  1.00  0.00     0.169 HD
ATOM      9  N4  UNK     1      -0.096  38.639 236.135  1.00  0.00    -0.347 N 
ATOM     10  H4  UNK     1      -0.987  38.925 236.541  1.00  0.00     0.166 HD
ATOM     11  C10 UNK     1       1.028  38.754 236.865  1.00  0.00     0.116 A 
ATOM     12  C11 UNK     1       3.295  38.962 238.370  1.00  0.00     0.157 A 
ATOM     13  C12 UNK     1       2.260  38.353 236.346  1.00  0.00     0.139 A 
ATOM     14  N6  UNK     1       2.320  37.847 235.104  1.00  0.00    -0.329 N 
ATOM     15  H6  UNK     1       3.217  37.551 234.719  1.00  0.00     0.168 HD
ATOM     16  H1  UNK     1       5.027  39.696 238.653  1.00  0.00     0.127 HD
ATOM     17  H2  UNK     1       4.143  39.442 240.003  1.00  0.00     0.127 HD
ENDROOT
BRANCH   2  18
ATOM     18  C9  UNK     1      -1.315  38.062 234.248  1.00  0.00    -0.006 A 
ATOM     19  C4  UNK     1      -2.227  37.091 234.702  1.00  0.00     0.014 A 
ATOM     20  C5  UNK     1      -3.509  36.946 234.151  1.00  0.00     0.001 A 
ATOM     21  C6  UNK     1      -3.908  37.811 233.135  1.00  0.00     0.000 A 
ATOM     22  C7  UNK     1      -3.015  38.800 232.696  1.00  0.00     0.001 A 
ATOM     23  C8  UNK     1      -1.733  38.944 233.256  1.00  0.00     0.014 A 
ENDBRANCH   2  18
BRANCH   3  24
ATOM     24  N7  UNK     1       1.355  37.219 233.138  1.00  0.00    -0.287 NA
ATOM     25  H10 UNK     1       0.476  37.217 232.661  1.00  0.00     0.125 HD
ATOM     26  H11 UNK     1       2.011  37.776 232.629  1.00  0.00     0.125 HD
ENDBRANCH   3  24
BRANCH   1  27
ATOM     27  N5  UNK     1      -0.166  39.667 238.685  1.00  0.00    -0.287 NA
ATOM     28  H8  UNK     1      -0.083  40.608 239.013  1.00  0.00     0.125 HD
ATOM     29  H9  UNK     1      -0.878  39.621 237.985  1.00  0.00     0.125 HD
ENDBRANCH   1  27
TORSDOF 3
ENDMDL
MODEL 6
REMARK VINA RESULT:      -6.3      2.022      3.748
REMARK  3 active torsions:
REMARK  status: ('A' for Active; 'I' for Inactive)
REMARK    1  A    between atoms: C1_1  and  N5_18 
REMARK    2  A    between atoms: C2_2  and  C9_14 
REMARK    3  A    between atoms: C3_3  and  N7_23 
REMARK       I    between atoms: N2_6  and  C11_19 
ROOT
ATOM      1  C1  UNK     1      -2.426  41.963 229.207  1.00  0.00     0.111 A 
ATOM      2  C2  UNK     1      -3.455  41.905 225.733  1.00  0.00     0.081 A 
ATOM      3  C3  UNK     1      -2.436  42.738 225.167  1.00  0.00     0.107 A 
ATOM      4  N1  UNK     1      -0.520  43.556 228.082  1.00  0.00    -0.317 N 
ATOM      5  H1  UNK     1       0.204  44.153 227.684  1.00  0.00     0.170 HD
ATOM      6  N2  UNK     1       0.413  43.815 230.186  1.00  0.00    -0.274 NA
ATOM      7  N3  UNK     1      -1.450  42.499 229.961  1.00  0.00    -0.322 N 
ATOM      8  H3  UNK     1      -1.420  42.304 230.962  1.00  0.00     0.169 HD
ATOM      9  N4  UNK     1      -3.407  41.661 227.049  1.00  0.00    -0.347 N 
ATOM     10  H4  UNK     1      -4.104  41.047 227.471  1.00  0.00     0.166 HD
ATOM     11  C10 UNK     1      -2.457  42.211 227.825  1.00  0.00     0.116 A 
ATOM     12  C11 UNK     1      -0.515  43.292 229.409  1.00  0.00     0.157 A 
ATOM     13  C12 UNK     1      -1.476  43.038 227.276  1.00  0.00     0.139 A 
ATOM     14  N6  UNK     1      -1.485  43.284 225.957  1.00  0.00    -0.329 N 
ATOM     15  H6  UNK     1      -0.771  43.887 225.548  1.00  0.00     0.168 HD
ATOM     16  H1  UNK     1       0.348  44.813 230.158  1.00  0.00     0.127 HD
ATOM     17  H2  UNK     1       0.278  43.499 231.125  1.00  0.00     0.127 HD
ENDROOT
BRANCH   2  18
ATOM     18  C9  UNK     1      -4.479  41.242 225.035  1.00  0.00    -0.006 A 
ATOM     19  C4  UNK     1      -4.185  40.011 224.420  1.00  0.00     0.014 A 
ATOM     20  C5  UNK     1      -5.152  39.261 223.734  1.00  0.00     0.001 A 
ATOM     21  C6  UNK     1      -6.460  39.736 223.681  1.00  0.00     0.000 A 
ATOM     22  C7  UNK     1      -6.768  40.948 224.316  1.00  0.00     0.001 A 
ATOM     23  C8  UNK     1      -5.796  41.693 225.006  1.00  0.00     0.014 A 
ENDBRANCH   2  18
BRANCH   3  24
ATOM     24  N7  UNK     1      -2.367  43.044 223.870  1.00  0.00    -0.287 NA
ATOM     25  H10 UNK     1      -3.242  42.840 223.431  1.00  0.00     0.125 HD
ATOM     26  H11 UNK     1      -2.161  44.018 223.769  1.00  0.00     0.125 HD
ENDBRANCH   3  24
BRANCH   1  27
ATOM     27  N5  UNK     1      -3.345  41.183 229.757  1.00  0.00    -0.287 NA
ATOM     28  H8  UNK     1      -3.878  40.737 229.038  1.00  0.00     0.125 HD
ATOM     29  H9  UNK     1      -2.898  40.489 230.320  1.00  0.00     0.125 HD
ENDBRANCH   1  27
TORSDOF 3
ENDMDL
MODEL 7
REMARK VINA RESULT:      -6.1      9.613     12.774
REMARK  3 active torsions:
REMARK  status: ('A' for Active; 'I' for Inactive)
REMARK    1  A    between atoms: C1_1  and  N5_18 
REMARK    2  A    between atoms: C2_2  and  C9_14 
REMARK    3  A    between atoms: C3_3  and  N7_23 
REMARK       I    between atoms: N2_6  and  C11_19 
ROOT
ATOM      1  C1  UNK     1       0.769  35.063 234.788  1.00  0.00     0.111 A 
ATOM      2  C2  UNK     1       1.684  37.787 236.997  1.00  0.00     0.081 A 
ATOM      3  C3  UNK     1       0.927  38.845 236.398  1.00  0.00     0.107 A 
ATOM      4  N1  UNK     1      -0.637  37.118 233.677  1.00  0.00    -0.317 N 
ATOM      5  H1  UNK     1      -1.174  37.870 233.244  1.00  0.00     0.170 HD
ATOM      6  N2  UNK     1      -1.426  35.631 232.085  1.00  0.00    -0.274 NA
ATOM      7  N3  UNK     1      -0.007  34.857 233.709  1.00  0.00    -0.322 N 
ATOM      8  H3  UNK     1      -0.073  33.922 233.306  1.00  0.00     0.169 HD
ATOM      9  N4  UNK     1       1.592  36.565 236.455  1.00  0.00    -0.347 N 
ATOM     10  H4  UNK     1       2.098  35.788 236.880  1.00  0.00     0.166 HD
ATOM     11  C10 UNK     1       0.844  36.343 235.359  1.00  0.00     0.116 A 
ATOM     12  C11 UNK     1      -0.694  35.871 233.155  1.00  0.00     0.157 A 
ATOM     13  C12 UNK     1       0.123  37.381 234.765  1.00  0.00     0.139 A 
ATOM     14  N6  UNK     1       0.179  38.611 235.297  1.00  0.00    -0.329 N 
ATOM     15  H6  UNK     1      -0.346  39.374 234.869  1.00  0.00     0.168 HD
ATOM     16  H1  UNK     1      -1.088  36.178 231.319  1.00  0.00     0.127 HD
ATOM     17  H2  UNK     1      -1.369  34.661 231.853  1.00  0.00     0.127 HD
ENDROOT
BRANCH   2  18
ATOM     18  C9  UNK     1       2.472  37.871 238.157  1.00  0.00    -0.006 A 
ATOM     19  C4  UNK     1       2.414  36.815 239.086  1.00  0.00     0.014 A 
ATOM     20  C5  UNK     1       3.192  36.796 240.254  1.00  0.00     0.001 A 
ATOM     21  C6  UNK     1       4.075  37.846 240.493  1.00  0.00     0.000 A 
ATOM     22  C7  UNK     1       4.159  38.888 239.558  1.00  0.00     0.001 A 
ATOM     23  C8  UNK     1       3.381  38.900 238.387  1.00  0.00     0.014 A 
ENDBRANCH   2  18
BRANCH   3  24
ATOM     24  N7  UNK     1       0.924  40.100 236.851  1.00  0.00    -0.287 NA
ATOM     25  H10 UNK     1       0.435  40.687 236.205  1.00  0.00     0.125 HD
ATOM     26  H11 UNK     1       0.470  40.132 237.741  1.00  0.00     0.125 HD
ENDBRANCH   3  24
BRANCH   1  27
ATOM     27  N5  UNK     1       1.444  34.060 235.329  1.00  0.00    -0.287 NA
ATOM     28  H8  UNK     1       1.330  33.240 234.767  1.00  0.00     0.125 HD
ATOM     29  H9  UNK     1       2.413  34.298 235.377  1.00  0.00     0.125 HD
ENDBRANCH   1  27
TORSDOF 3
ENDMDL
MODEL 8
REMARK VINA RESULT:      -6.1      7.866      9.396
REMARK  3 active torsions:
REMARK  status: ('A' for Active; 'I' for Inactive)
REMARK    1  A    between atoms: C1_1  and  N5_18 
REMARK    2  A    between atoms: C2_2  and  C9_14 
REMARK    3  A    between atoms: C3_3  and  N7_23 
REMARK       I    between atoms: N2_6  and  C11_19 
ROOT
ATOM      1  C1  UNK     1       1.425  38.988 236.777  1.00  0.00     0.111 A 
ATOM      2  C2  UNK     1      -0.499  37.637 234.020  1.00  0.00     0.081 A 
ATOM      3  C3  UNK     1       0.104  36.342 233.919  1.00  0.00     0.107 A 
ATOM      4  N1  UNK     1       2.551  36.516 236.530  1.00  0.00    -0.317 N 
ATOM      5  H1  UNK     1       2.986  35.597 236.459  1.00  0.00     0.170 HD
ATOM      6  N2  UNK     1       3.959  37.053 238.289  1.00  0.00    -0.274 NA
ATOM      7  N3  UNK     1       2.416  38.601 237.602  1.00  0.00    -0.322 N 
ATOM      8  H3  UNK     1       2.745  39.236 238.329  1.00  0.00     0.169 HD
ATOM      9  N4  UNK     1      -0.054  38.464 234.976  1.00  0.00    -0.347 N 
ATOM     10  H4  UNK     1      -0.487  39.380 235.087  1.00  0.00     0.166 HD
ATOM     11  C10 UNK     1       0.955  38.107 235.791  1.00  0.00     0.116 A 
ATOM     12  C11 UNK     1       2.977  37.386 237.475  1.00  0.00     0.157 A 
ATOM     13  C12 UNK     1       1.555  36.851 235.678  1.00  0.00     0.139 A 
ATOM     14  N6  UNK     1       1.117  35.994 234.744  1.00  0.00    -0.329 N 
ATOM     15  H6  UNK     1       1.550  35.074 234.656  1.00  0.00     0.168 HD
ATOM     16  H1  UNK     1       4.788  36.877 237.758  1.00  0.00     0.127 HD
ATOM     17  H2  UNK     1       4.127  37.800 238.932  1.00  0.00     0.127 HD
ENDROOT
BRANCH   2  18
ATOM     18  C9  UNK     1      -1.577  38.122 233.261  1.00  0.00    -0.006 A 
ATOM     19  C4  UNK     1      -1.311  38.677 231.995  1.00  0.00     0.014 A 
ATOM     20  C5  UNK     1      -2.326  39.152 231.152  1.00  0.00     0.001 A 
ATOM     21  C6  UNK     1      -3.651  39.050 231.568  1.00  0.00     0.000 A 
ATOM     22  C7  UNK     1      -3.927  38.473 232.817  1.00  0.00     0.001 A 
ATOM     23  C8  UNK     1      -2.906  37.992 233.654  1.00  0.00     0.014 A 
ENDBRANCH   2  18
BRANCH   3  24
ATOM     24  N7  UNK     1      -0.259  35.425 233.019  1.00  0.00    -0.287 NA
ATOM     25  H10 UNK     1      -0.856  35.846 232.336  1.00  0.00     0.125 HD
ATOM     26  H11 UNK     1       0.556  35.059 232.570  1.00  0.00     0.125 HD
ENDBRANCH   3  24
BRANCH   1  27
ATOM     27  N5  UNK     1       0.877  40.186 236.907  1.00  0.00    -0.287 NA
ATOM     28  H8  UNK     1       0.053  40.239 236.343  1.00  0.00     0.125 HD
ATOM     29  H9  UNK     1       0.636  40.340 237.865  1.00  0.00     0.125 HD
ENDBRANCH   1  27
TORSDOF 3
ENDMDL
MODEL 9
REMARK VINA RESULT:      -6.1      9.894     11.625
REMARK  3 active torsions:
REMARK  status: ('A' for Active; 'I' for Inactive)
REMARK    1  A    between atoms: C1_1  and  N5_18 
REMARK    2  A    between atoms: C2_2  and  C9_14 
REMARK    3  A    between atoms: C3_3  and  N7_23 
REMARK       I    between atoms: N2_6  and  C11_19 
ROOT
ATOM      1  C1  UNK     1       1.903  33.489 236.396  1.00  0.00     0.111 A 
ATOM      2  C2  UNK     1       1.262  36.731 234.908  1.00  0.00     0.081 A 
ATOM      3  C3  UNK     1       2.025  37.556 235.794  1.00  0.00     0.107 A 
ATOM      4  N1  UNK     1       3.327  35.109 238.064  1.00  0.00    -0.317 N 
ATOM      5  H1  UNK     1       3.869  35.694 238.700  1.00  0.00     0.170 HD
ATOM      6  N2  UNK     1       3.941  33.226 239.264  1.00  0.00    -0.274 NA
ATOM      7  N3  UNK     1       2.597  32.972 237.426  1.00  0.00    -0.322 N 
ATOM      8  H3  UNK     1       2.594  31.963 237.580  1.00  0.00     0.169 HD
ATOM      9  N4  UNK     1       1.262  35.408 235.125  1.00  0.00    -0.347 N 
ATOM     10  H4  UNK     1       0.749  34.796 234.491  1.00  0.00     0.166 HD
ATOM     11  C10 UNK     1       1.925  34.874 236.166  1.00  0.00     0.116 A 
ATOM     12  C11 UNK     1       3.293  33.770 238.254  1.00  0.00     0.157 A 
ATOM     13  C12 UNK     1       2.653  35.683 237.041  1.00  0.00     0.139 A 
ATOM     14  N6  UNK     1       2.689  37.008 236.836  1.00  0.00    -0.329 N 
ATOM     15  H6  UNK     1       3.220  37.605 237.471  1.00  0.00     0.168 HD
ATOM     16  H1  UNK     1       3.579  33.583 240.125  1.00  0.00     0.127 HD
ATOM     17  H2  UNK     1       3.824  32.233 239.239  1.00  0.00     0.127 HD
ENDROOT
BRANCH   2  18
ATOM     18  C9  UNK     1       0.556  37.152 233.768  1.00  0.00    -0.006 A 
ATOM     19  C4  UNK     1       1.011  36.732 232.503  1.00  0.00     0.014 A 
ATOM     20  C5  UNK     1       0.350  37.073 231.314  1.00  0.00     0.001 A 
ATOM     21  C6  UNK     1      -0.816  37.832 231.384  1.00  0.00     0.000 A 
ATOM     22  C7  UNK     1      -1.291  38.230 232.642  1.00  0.00     0.001 A 
ATOM     23  C8  UNK     1      -0.628  37.881 233.831  1.00  0.00     0.014 A 
ENDBRANCH   2  18
BRANCH   3  24
ATOM     24  N7  UNK     1       2.116  38.883 235.675  1.00  0.00    -0.287 NA
ATOM     25  H10 UNK     1       2.904  39.114 235.104  1.00  0.00     0.125 HD
ATOM     26  H11 UNK     1       1.282  39.237 235.252  1.00  0.00     0.125 HD
ENDBRANCH   3  24
BRANCH   1  27
ATOM     27  N5  UNK     1       1.220  32.697 235.584  1.00  0.00    -0.287 NA
ATOM     28  H8  UNK     1       0.662  32.067 236.125  1.00  0.00     0.125 HD
ATOM     29  H9  UNK     1       0.627  33.250 235.000  1.00  0.00     0.125 HD
ENDBRANCH   1  27
TORSDOF 3
ENDMDL
