MODEL 1
REMARK VINA RESULT:      -8.7      0.000      0.000
REMARK  1 active torsions:
REMARK  status: ('A' for Active; 'I' for Inactive)
REMARK    1  A    between atoms: C5_8  and  N2_9 
ROOT
ATOM      1  N2  UNK     1      -0.500  42.635 228.905  1.00  0.00    -0.266 N 
ATOM      2  C6  UNK     1      -4.769  41.383 227.427  1.00  0.00     0.001 A 
ATOM      3  C7  UNK     1      -3.854  41.080 228.461  1.00  0.00     0.018 A 
ATOM      4  C8  UNK     1      -2.626  41.760 228.429  1.00  0.00     0.048 A 
ATOM      5  C9  UNK     1      -2.321  42.690 227.420  1.00  0.00     0.048 A 
ATOM      6  O3  UNK     1      -1.358  40.998 230.348  1.00  0.00    -0.267 OA
ATOM      7  O4  UNK     1      -0.329  43.979 227.040  1.00  0.00    -0.267 OA
ATOM      8  C10 UNK     1      -3.225  42.970 226.380  1.00  0.00     0.018 A 
ATOM      9  C11 UNK     1      -4.460  42.292 226.393  1.00  0.00     0.001 A 
ATOM     10  C12 UNK     1      -0.940  43.204 227.755  1.00  0.00     0.262 A 
ATOM     11  C13 UNK     1      -1.432  41.745 229.365  1.00  0.00     0.262 A 
ENDROOT
BRANCH   1  12
ATOM     12  C5  UNK     1       0.833  42.851 229.449  1.00  0.00     0.189 C 
ATOM     13  C1  UNK     1       0.976  44.217 230.078  1.00  0.00     0.247 C 
ATOM     14  O1  UNK     1      -0.013  44.778 230.530  1.00  0.00    -0.271 OA
ATOM     15  N1  UNK     1       2.222  44.746 230.174  1.00  0.00    -0.296 N 
ATOM     16  C2  UNK     1       3.355  44.163 229.715  1.00  0.00     0.224 C 
ATOM     17  H1  UNK     1       2.310  45.638 230.618  1.00  0.00     0.171 HD
ATOM     18  O2  UNK     1       4.423  44.718 229.847  1.00  0.00    -0.273 OA
ATOM     19  C3  UNK     1       3.313  42.808 229.052  1.00  0.00     0.106 C 
ATOM     20  C4  UNK     1       1.928  42.598 228.390  1.00  0.00     0.045 C 
ENDBRANCH   1  12
TORSDOF 1
ENDMDL
MODEL 2
REMARK VINA RESULT:      -8.7      0.203      2.012
REMARK  1 active torsions:
REMARK  status: ('A' for Active; 'I' for Inactive)
REMARK    1  A    between atoms: C5_8  and  N2_9 
ROOT
ATOM      1  N2  UNK     1      -0.273  42.527 228.717  1.00  0.00    -0.266 N 
ATOM      2  C6  UNK     1      -4.407  42.391 226.512  1.00  0.00     0.001 A 
ATOM      3  C7  UNK     1      -3.178  43.084 226.454  1.00  0.00     0.018 A 
ATOM      4  C8  UNK     1      -2.220  42.743 227.423  1.00  0.00     0.048 A 
ATOM      5  C9  UNK     1      -2.474  41.765 228.402  1.00  0.00     0.048 A 
ATOM      6  O3  UNK     1      -0.268  44.110 226.987  1.00  0.00    -0.267 OA
ATOM      7  O4  UNK     1      -1.102  40.979 230.211  1.00  0.00    -0.267 OA
ATOM      8  C10 UNK     1      -3.709  41.096 228.470  1.00  0.00     0.018 A 
ATOM      9  C11 UNK     1      -4.683  41.431 227.508  1.00  0.00     0.001 A 
ATOM     10  C12 UNK     1      -1.207  41.682 229.220  1.00  0.00     0.262 A 
ATOM     11  C13 UNK     1      -0.798  43.215 227.658  1.00  0.00     0.262 A 
ENDROOT
BRANCH   1  12
ATOM     12  C5  UNK     1       1.025  42.751 229.336  1.00  0.00     0.189 C 
ATOM     13  C1  UNK     1       1.088  44.073 230.064  1.00  0.00     0.247 C 
ATOM     14  O1  UNK     1       0.059  44.565 230.508  1.00  0.00    -0.271 OA
ATOM     15  N1  UNK     1       2.307  44.638 230.254  1.00  0.00    -0.296 N 
ATOM     16  C2  UNK     1       3.481  44.129 229.810  1.00  0.00     0.224 C 
ATOM     17  H1  UNK     1       2.341  45.498 230.763  1.00  0.00     0.171 HD
ATOM     18  O2  UNK     1       4.520  44.710 230.029  1.00  0.00    -0.273 OA
ATOM     19  C3  UNK     1       3.521  42.824 229.053  1.00  0.00     0.106 C 
ATOM     20  C4  UNK     1       2.175  42.612 228.314  1.00  0.00     0.045 C 
ENDBRANCH   1  12
TORSDOF 1
ENDMDL
MODEL 3
REMARK VINA RESULT:      -7.3      9.018     10.199
REMARK  1 active torsions:
REMARK  status: ('A' for Active; 'I' for Inactive)
REMARK    1  A    between atoms: C5_8  and  N2_9 
ROOT
ATOM      1  N2  UNK     1       1.652  36.378 235.881  1.00  0.00    -0.266 N 
ATOM      2  C6  UNK     1       0.206  36.201 231.425  1.00  0.00     0.001 A 
ATOM      3  C7  UNK     1       0.703  37.136 232.360  1.00  0.00     0.018 A 
ATOM      4  C8  UNK     1       0.972  36.649 233.650  1.00  0.00     0.048 A 
ATOM      5  C9  UNK     1       0.753  35.303 233.994  1.00  0.00     0.048 A 
ATOM      6  O3  UNK     1       1.818  38.519 234.938  1.00  0.00    -0.267 OA
ATOM      7  O4  UNK     1       1.054  34.161 236.086  1.00  0.00    -0.267 OA
ATOM      8  C10 UNK     1       0.235  34.382 233.065  1.00  0.00     0.018 A 
ATOM      9  C11 UNK     1      -0.045  34.856 231.768  1.00  0.00     0.001 A 
ATOM     10  C12 UNK     1       1.180  35.186 235.438  1.00  0.00     0.262 A 
ATOM     11  C13 UNK     1       1.545  37.313 234.888  1.00  0.00     0.262 A 
ENDROOT
BRANCH   1  12
ATOM     12  C5  UNK     1       2.055  36.621 237.258  1.00  0.00     0.189 C 
ATOM     13  C1  UNK     1       1.067  37.494 237.994  1.00  0.00     0.247 C 
ATOM     14  O1  UNK     1      -0.106  37.501 237.646  1.00  0.00    -0.271 OA
ATOM     15  N1  UNK     1       1.513  38.197 239.066  1.00  0.00    -0.296 N 
ATOM     16  C2  UNK     1       2.792  38.210 239.513  1.00  0.00     0.224 C 
ATOM     17  H1  UNK     1       0.846  38.749 239.565  1.00  0.00     0.171 HD
ATOM     18  O2  UNK     1       3.093  38.872 240.481  1.00  0.00    -0.273 OA
ATOM     19  C3  UNK     1       3.858  37.388 238.831  1.00  0.00     0.106 C 
ATOM     20  C4  UNK     1       3.488  37.194 237.339  1.00  0.00     0.045 C 
ENDBRANCH   1  12
TORSDOF 1
ENDMDL
MODEL 4
REMARK VINA RESULT:      -7.2      8.981      9.993
REMARK  1 active torsions:
REMARK  status: ('A' for Active; 'I' for Inactive)
REMARK    1  A    between atoms: C5_8  and  N2_9 
ROOT
ATOM      1  N2  UNK     1       1.437  36.415 235.952  1.00  0.00    -0.266 N 
ATOM      2  C6  UNK     1       0.080  34.977 231.702  1.00  0.00     0.001 A 
ATOM      3  C7  UNK     1       0.275  34.462 233.003  1.00  0.00     0.018 A 
ATOM      4  C8  UNK     1       0.749  35.363 233.969  1.00  0.00     0.048 A 
ATOM      5  C9  UNK     1       1.021  36.707 233.658  1.00  0.00     0.048 A 
ATOM      6  O3  UNK     1       0.930  34.128 236.046  1.00  0.00    -0.267 OA
ATOM      7  O4  UNK     1       1.875  38.483 235.032  1.00  0.00    -0.267 OA
ATOM      8  C10 UNK     1       0.849  37.210 232.355  1.00  0.00     0.018 A 
ATOM      9  C11 UNK     1       0.379  36.316 231.372  1.00  0.00     0.001 A 
ATOM     10  C12 UNK     1       1.482  37.332 234.954  1.00  0.00     0.262 A 
ATOM     11  C13 UNK     1       1.032  35.208 235.452  1.00  0.00     0.262 A 
ENDROOT
BRANCH   1  12
ATOM     12  C5  UNK     1       1.906  36.677 237.305  1.00  0.00     0.189 C 
ATOM     13  C1  UNK     1       1.019  37.660 238.034  1.00  0.00     0.247 C 
ATOM     14  O1  UNK     1      -0.160  37.751 237.722  1.00  0.00    -0.271 OA
ATOM     15  N1  UNK     1       1.559  38.364 239.061  1.00  0.00    -0.296 N 
ATOM     16  C2  UNK     1       2.848  38.287 239.467  1.00  0.00     0.224 C 
ATOM     17  H1  UNK     1       0.957  38.990 239.556  1.00  0.00     0.171 HD
ATOM     18  O2  UNK     1       3.237  38.960 240.396  1.00  0.00    -0.273 OA
ATOM     19  C3  UNK     1       3.819  37.352 238.788  1.00  0.00     0.106 C 
ATOM     20  C4  UNK     1       3.383  37.131 237.318  1.00  0.00     0.045 C 
ENDBRANCH   1  12
TORSDOF 1
ENDMDL
MODEL 5
REMARK VINA RESULT:      -6.7     10.981     12.493
REMARK  1 active torsions:
REMARK  status: ('A' for Active; 'I' for Inactive)
REMARK    1  A    between atoms: C5_8  and  N2_9 
ROOT
ATOM      1  N2  UNK     1       2.448  35.466 237.375  1.00  0.00    -0.266 N 
ATOM      2  C6  UNK     1       2.933  31.172 235.558  1.00  0.00     0.001 A 
ATOM      3  C7  UNK     1       2.317  32.407 235.255  1.00  0.00     0.018 A 
ATOM      4  C8  UNK     1       2.463  33.429 236.207  1.00  0.00     0.048 A 
ATOM      5  C9  UNK     1       3.181  33.233 237.400  1.00  0.00     0.048 A 
ATOM      6  O3  UNK     1       1.303  35.368 235.331  1.00  0.00    -0.267 OA
ATOM      7  O4  UNK     1       3.582  34.725 239.240  1.00  0.00    -0.267 OA
ATOM      8  C10 UNK     1       3.772  31.994 237.707  1.00  0.00     0.018 A 
ATOM      9  C11 UNK     1       3.630  30.956 236.765  1.00  0.00     0.001 A 
ATOM     10  C12 UNK     1       3.121  34.558 238.124  1.00  0.00     0.262 A 
ATOM     11  C13 UNK     1       2.001  34.874 236.225  1.00  0.00     0.262 A 
ENDROOT
BRANCH   1  12
ATOM     12  C5  UNK     1       2.136  36.812 237.833  1.00  0.00     0.189 C 
ATOM     13  C1  UNK     1       0.681  36.962 238.210  1.00  0.00     0.247 C 
ATOM     14  O1  UNK     1       0.054  35.981 238.588  1.00  0.00    -0.271 OA
ATOM     15  N1  UNK     1       0.139  38.205 238.175  1.00  0.00    -0.296 N 
ATOM     16  C2  UNK     1       0.789  39.329 237.791  1.00  0.00     0.224 C 
ATOM     17  H1  UNK     1      -0.817  38.299 238.455  1.00  0.00     0.171 HD
ATOM     18  O2  UNK     1       0.216  40.396 237.792  1.00  0.00    -0.273 OA
ATOM     19  C3  UNK     1       2.239  39.280 237.374  1.00  0.00     0.106 C 
ATOM     20  C4  UNK     1       2.566  37.878 236.801  1.00  0.00     0.045 C 
ENDBRANCH   1  12
TORSDOF 1
ENDMDL
MODEL 6
REMARK VINA RESULT:      -6.4     10.816     12.222
REMARK  1 active torsions:
REMARK  status: ('A' for Active; 'I' for Inactive)
REMARK    1  A    between atoms: C5_8  and  N2_9 
ROOT
ATOM      1  N2  UNK     1       2.161  35.348 237.321  1.00  0.00    -0.266 N 
ATOM      2  C6  UNK     1       3.393  30.965 236.204  1.00  0.00     0.001 A 
ATOM      3  C7  UNK     1       3.651  31.937 237.196  1.00  0.00     0.018 A 
ATOM      4  C8  UNK     1       3.008  33.176 237.041  1.00  0.00     0.048 A 
ATOM      5  C9  UNK     1       2.157  33.437 235.952  1.00  0.00     0.048 A 
ATOM      6  O3  UNK     1       3.673  34.547 238.925  1.00  0.00    -0.267 OA
ATOM      7  O4  UNK     1       0.952  35.429 235.360  1.00  0.00    -0.267 OA
ATOM      8  C10 UNK     1       1.923  32.474 234.954  1.00  0.00     0.018 A 
ATOM      9  C11 UNK     1       2.565  31.227 235.092  1.00  0.00     0.001 A 
ATOM     10  C12 UNK     1       1.660  34.848 236.164  1.00  0.00     0.262 A 
ATOM     11  C13 UNK     1       2.992  34.427 237.898  1.00  0.00     0.262 A 
ENDROOT
BRANCH   1  12
ATOM     12  C5  UNK     1       1.946  36.717 237.764  1.00  0.00     0.189 C 
ATOM     13  C1  UNK     1       0.514  36.962 238.177  1.00  0.00     0.247 C 
ATOM     14  O1  UNK     1      -0.162  36.029 238.588  1.00  0.00    -0.271 OA
ATOM     15  N1  UNK     1       0.048  38.237 238.136  1.00  0.00    -0.296 N 
ATOM     16  C2  UNK     1       0.755  39.312 237.715  1.00  0.00     0.224 C 
ATOM     17  H1  UNK     1      -0.892  38.393 238.439  1.00  0.00     0.171 HD
ATOM     18  O2  UNK     1       0.250  40.412 237.713  1.00  0.00    -0.273 OA
ATOM     19  C3  UNK     1       2.187  39.167 237.261  1.00  0.00     0.106 C 
ATOM     20  C4  UNK     1       2.412  37.739 236.703  1.00  0.00     0.045 C 
ENDBRANCH   1  12
TORSDOF 1
ENDMDL
MODEL 7
REMARK VINA RESULT:      -6.2     11.286     13.148
REMARK  1 active torsions:
REMARK  status: ('A' for Active; 'I' for Inactive)
REMARK    1  A    between atoms: C5_8  and  N2_9 
ROOT
ATOM      1  N2  UNK     1       2.538  34.942 236.780  1.00  0.00    -0.266 N 
ATOM      2  C6  UNK     1       3.794  38.718 239.258  1.00  0.00     0.001 A 
ATOM      3  C7  UNK     1       3.891  37.310 239.316  1.00  0.00     0.018 A 
ATOM      4  C8  UNK     1       3.284  36.597 238.270  1.00  0.00     0.048 A 
ATOM      5  C9  UNK     1       2.612  37.250 237.221  1.00  0.00     0.048 A 
ATOM      6  O3  UNK     1       3.679  34.247 238.707  1.00  0.00    -0.267 OA
ATOM      7  O4  UNK     1       1.439  36.354 235.326  1.00  0.00    -0.267 OA
ATOM      8  C10 UNK     1       2.497  38.651 237.181  1.00  0.00     0.018 A 
ATOM      9  C11 UNK     1       3.096  39.382 238.227  1.00  0.00     0.001 A 
ATOM     10  C12 UNK     1       2.131  36.147 236.308  1.00  0.00     0.262 A 
ATOM     11  C13 UNK     1       3.213  35.114 237.958  1.00  0.00     0.262 A 
ENDROOT
BRANCH   1  12
ATOM     12  C5  UNK     1       2.158  33.673 236.178  1.00  0.00     0.189 C 
ATOM     13  C1  UNK     1       1.105  32.953 236.987  1.00  0.00     0.247 C 
ATOM     14  O1  UNK     1       0.337  33.599 237.687  1.00  0.00    -0.271 OA
ATOM     15  N1  UNK     1       1.010  31.605 236.853  1.00  0.00    -0.296 N 
ATOM     16  C2  UNK     1       1.812  30.840 236.075  1.00  0.00     0.224 C 
ATOM     17  H1  UNK     1       0.290  31.141 237.369  1.00  0.00     0.171 HD
ATOM     18  O2  UNK     1       1.649  29.642 236.023  1.00  0.00    -0.273 OA
ATOM     19  C3  UNK     1       2.908  31.464 235.246  1.00  0.00     0.106 C 
ATOM     20  C4  UNK     1       3.387  32.774 235.921  1.00  0.00     0.045 C 
ENDBRANCH   1  12
TORSDOF 1
ENDMDL
MODEL 8
REMARK VINA RESULT:      -6.2      8.860      9.799
REMARK  1 active torsions:
REMARK  status: ('A' for Active; 'I' for Inactive)
REMARK    1  A    between atoms: C5_8  and  N2_9 
ROOT
ATOM      1  N2  UNK     1       1.219  37.827 236.234  1.00  0.00    -0.266 N 
ATOM      2  C6  UNK     1      -2.873  36.725 234.231  1.00  0.00     0.001 A 
ATOM      3  C7  UNK     1      -2.266  36.737 235.506  1.00  0.00     0.018 A 
ATOM      4  C8  UNK     1      -0.928  37.157 235.559  1.00  0.00     0.048 A 
ATOM      5  C9  UNK     1      -0.226  37.540 234.403  1.00  0.00     0.048 A 
ATOM      6  O3  UNK     1      -0.260  37.064 237.887  1.00  0.00    -0.267 OA
ATOM      7  O4  UNK     1       2.052  38.255 234.127  1.00  0.00    -0.267 OA
ATOM      8  C10 UNK     1      -0.826  37.503 233.132  1.00  0.00     0.018 A 
ATOM      9  C11 UNK     1      -2.169  37.078 233.060  1.00  0.00     0.001 A 
ATOM     10  C12 UNK     1       1.150  37.937 234.884  1.00  0.00     0.262 A 
ATOM     11  C13 UNK     1       0.033  37.349 236.718  1.00  0.00     0.262 A 
ENDROOT
BRANCH   1  12
ATOM     12  C5  UNK     1       2.439  38.047 236.997  1.00  0.00     0.189 C 
ATOM     13  C1  UNK     1       3.040  36.753 237.494  1.00  0.00     0.247 C 
ATOM     14  O1  UNK     1       2.833  35.717 236.875  1.00  0.00    -0.271 OA
ATOM     15  N1  UNK     1       3.847  36.802 238.584  1.00  0.00    -0.296 N 
ATOM     16  C2  UNK     1       4.132  37.920 239.293  1.00  0.00     0.224 C 
ATOM     17  H1  UNK     1       4.263  35.946 238.887  1.00  0.00     0.171 HD
ATOM     18  O2  UNK     1       4.865  37.862 240.255  1.00  0.00    -0.273 OA
ATOM     19  C3  UNK     1       3.563  39.258 238.890  1.00  0.00     0.106 C 
ATOM     20  C4  UNK     1       2.216  39.048 238.153  1.00  0.00     0.045 C 
ENDBRANCH   1  12
TORSDOF 1
ENDMDL
MODEL 9
REMARK VINA RESULT:      -6.1      8.820     10.985
REMARK  1 active torsions:
REMARK  status: ('A' for Active; 'I' for Inactive)
REMARK    1  A    between atoms: C5_8  and  N2_9 
ROOT
ATOM      1  N2  UNK     1       1.297  37.669 236.047  1.00  0.00    -0.266 N 
ATOM      2  C6  UNK     1       3.542  36.918 240.092  1.00  0.00     0.001 A 
ATOM      3  C7  UNK     1       3.044  36.195 238.986  1.00  0.00     0.018 A 
ATOM      4  C8  UNK     1       2.388  36.941 237.995  1.00  0.00     0.048 A 
ATOM      5  C9  UNK     1       2.230  38.334 238.099  1.00  0.00     0.048 A 
ATOM      6  O3  UNK     1       1.707  35.372 236.278  1.00  0.00    -0.267 OA
ATOM      7  O4  UNK     1       1.136  39.893 236.634  1.00  0.00    -0.267 OA
ATOM      8  C10 UNK     1       2.707  39.047 239.214  1.00  0.00     0.018 A 
ATOM      9  C11 UNK     1       3.364  38.311 240.222  1.00  0.00     0.001 A 
ATOM     10  C12 UNK     1       1.505  38.749 236.840  1.00  0.00     0.262 A 
ATOM     11  C13 UNK     1       1.771  36.545 236.666  1.00  0.00     0.262 A 
ENDROOT
BRANCH   1  12
ATOM     12  C5  UNK     1       0.541  37.719 234.805  1.00  0.00     0.189 C 
ATOM     13  C1  UNK     1      -0.824  37.085 234.944  1.00  0.00     0.247 C 
ATOM     14  O1  UNK     1      -1.368  37.062 236.039  1.00  0.00    -0.271 OA
ATOM     15  N1  UNK     1      -1.425  36.617 233.821  1.00  0.00    -0.296 N 
ATOM     16  C2  UNK     1      -0.885  36.637 232.579  1.00  0.00     0.224 C 
ATOM     17  H1  UNK     1      -2.341  36.226 233.918  1.00  0.00     0.171 HD
ATOM     18  O2  UNK     1      -1.502  36.192 231.637  1.00  0.00    -0.273 OA
ATOM     19  C3  UNK     1       0.483  37.229 232.341  1.00  0.00     0.106 C 
ATOM     20  C4  UNK     1       1.333  37.104 233.630  1.00  0.00     0.045 C 
ENDBRANCH   1  12
TORSDOF 1
ENDMDL
