MODEL 1
REMARK VINA RESULT:      -7.3      0.000      0.000
REMARK  13 active torsions:
REMARK  status: ('A' for Active; 'I' for Inactive)
REMARK    1  A    between atoms: C10_33  and  C12_2 
REMARK    2  A    between atoms: C19_15  and  N2_36 
REMARK    3  A    between atoms: C3_27  and  O3_23 
REMARK    4  A    between atoms: C1_25  and  C2_26 
REMARK    5  A    between atoms: C2_26  and  C3_27 
REMARK    6  A    between atoms: C3_27  and  C4_28 
REMARK    7  A    between atoms: C4_28  and  C5_29 
REMARK    8  A    between atoms: C5_29  and  O5_43 
REMARK    9  A    between atoms: C5_29  and  C6_30 
REMARK   10  A    between atoms: C6_30  and  C7_31 
REMARK   11  A    between atoms: C7_31  and  N1_32 
REMARK   12  A    between atoms: C11_34  and  C18_35 
REMARK       I    between atoms: C18_35  and  N2_36 
REMARK   13  A    between atoms: C9_39  and  C91_40 
ROOT
HETATM    1  C83 117   166      -4.726  33.714 238.277  1.00 20.00     0.043 A 
HETATM    2  C82 117   166      -4.190  34.035 237.001  1.00 20.00     0.017 A 
HETATM    3  C81 117   166      -3.316  35.133 236.864  1.00 20.00    -0.008 A 
HETATM    4  C86 117   166      -3.003  35.891 238.026  1.00 20.00     0.017 A 
HETATM    5  C85 117   166      -3.525  35.580 239.273  1.00 20.00     0.043 A 
HETATM    6  C84 117   166      -4.384  34.498 239.407  1.00 20.00     0.116 A 
HETATM    7  F1  117   166      -4.894  34.209 240.632  1.00 20.00    -0.206 F 
HETATM    8  C8  117   166      -2.727  35.552 235.636  1.00 20.00     0.057 A 
HETATM    9  N1  117   166      -1.339  35.402 235.343  1.00 20.00    -0.347 N 
HETATM   10  C10 117   166      -3.402  36.195 234.544  1.00 20.00     0.020 A 
HETATM   11  C11 117   166      -2.394  36.471 233.569  1.00 20.00     0.068 A 
HETATM   12  C9  117   166      -1.168  35.980 234.072  1.00 20.00     0.032 A 
ENDROOT
BRANCH   9  13
HETATM   13  C7  117   166      -0.276  34.778 236.199  1.00 20.00     0.132 C 
BRANCH  13  14
HETATM   14  C6  117   166       0.795  35.799 236.638  1.00 20.00     0.052 C 
BRANCH  14  15
HETATM   15  C5  117   166       0.249  36.756 237.706  1.00 20.00     0.122 C 
BRANCH  15  16
HETATM   16  C4  117   166       0.781  38.167 237.504  1.00 20.00     0.064 C 
BRANCH  16  17
HETATM   17  C3  117   166       2.222  38.119 237.056  1.00 20.00     0.130 C 
BRANCH  17  18
HETATM   18  C2  117   166       3.189  38.642 238.129  1.00 20.00     0.144 C 
BRANCH  18  19
HETATM   19  C1  117   166       3.903  37.530 238.896  1.00 20.00     0.175 C 
HETATM   20  O1A 117   166       4.816  38.011 239.752  1.00 20.00    -0.648 OA
HETATM   21  O1B 117   166       3.681  36.337 238.754  1.00 20.00    -0.648 OA
ENDBRANCH  18  19
ENDBRANCH  17  18
BRANCH  17  22
HETATM   22  O3  117   166       2.317  38.931 235.897  1.00 20.00    -0.395 OA
ATOM     23  H3  117   166       1.455  39.257 235.666  1.00  0.00     0.210 HD
ENDBRANCH  17  22
ENDBRANCH  16  17
ENDBRANCH  15  16
BRANCH  15  24
HETATM   24  O5  117   166       0.641  36.330 238.984  1.00 20.00    -0.395 OA
ATOM     25  H5  117   166      -0.108  36.420 239.561  1.00  0.00     0.210 HD
ENDBRANCH  15  24
ENDBRANCH  14  15
ENDBRANCH  13  14
ENDBRANCH   9  13
BRANCH  12  26
HETATM   26  C91 117   166       0.238  36.027 233.403  1.00 20.00     0.028 C 
HETATM   27  C93 117   166       0.305  35.318 232.044  1.00 20.00     0.016 C 
HETATM   28  C92 117   166       0.742  37.467 233.250  1.00 20.00     0.016 C 
ENDBRANCH  12  26
BRANCH  10  29
HETATM   29  C12 117   166      -4.790  36.482 234.494  1.00 20.00    -0.023 A 
HETATM   30  C17 117   166      -5.722  35.582 233.936  1.00 20.00     0.012 A 
HETATM   31  C16 117   166      -7.083  35.908 233.865  1.00 20.00     0.001 A 
HETATM   32  C15 117   166      -7.540  37.147 234.349  1.00 20.00     0.000 A 
HETATM   33  C14 117   166      -6.635  38.064 234.905  1.00 20.00     0.001 A 
HETATM   34  C13 117   166      -5.273  37.741 234.977  1.00 20.00     0.012 A 
ENDBRANCH  10  29
BRANCH  11  35
HETATM   35  C18 117   166      -2.516  37.172 232.203  1.00 20.00     0.259 C 
HETATM   36  N2  117   166      -2.469  38.610 232.133  1.00 20.00    -0.323 N 
ATOM     37  H2  117   166      -2.336  39.100 233.016  1.00  0.00     0.169 HD
HETATM   38  O18 117   166      -2.666  36.473 231.203  1.00 20.00    -0.267 OA
BRANCH  36  39
HETATM   39  C19 117   166      -2.576  39.343 231.088  1.00 20.00     0.035 A 
HETATM   40  C20 117   166      -1.449  40.004 230.558  1.00 20.00     0.029 A 
HETATM   41  C21 117   166      -1.579  40.823 229.429  1.00 20.00     0.002 A 
HETATM   42  C22 117   166      -2.831  40.988 228.826  1.00 20.00     0.000 A 
HETATM   43  C23 117   166      -3.954  40.336 229.340  1.00 20.00     0.002 A 
HETATM   44  C24 117   166      -3.830  39.517 230.463  1.00 20.00     0.029 A 
ENDBRANCH  36  39
ENDBRANCH  11  35
TORSDOF 13
ENDMDL
MODEL 2
REMARK VINA RESULT:      -7.1      0.940      1.771
REMARK  13 active torsions:
REMARK  status: ('A' for Active; 'I' for Inactive)
REMARK    1  A    between atoms: C10_33  and  C12_2 
REMARK    2  A    between atoms: C19_15  and  N2_36 
REMARK    3  A    between atoms: C3_27  and  O3_23 
REMARK    4  A    between atoms: C1_25  and  C2_26 
REMARK    5  A    between atoms: C2_26  and  C3_27 
REMARK    6  A    between atoms: C3_27  and  C4_28 
REMARK    7  A    between atoms: C4_28  and  C5_29 
REMARK    8  A    between atoms: C5_29  and  O5_43 
REMARK    9  A    between atoms: C5_29  and  C6_30 
REMARK   10  A    between atoms: C6_30  and  C7_31 
REMARK   11  A    between atoms: C7_31  and  N1_32 
REMARK   12  A    between atoms: C11_34  and  C18_35 
REMARK       I    between atoms: C18_35  and  N2_36 
REMARK   13  A    between atoms: C9_39  and  C91_40 
ROOT
HETATM    1  C83 117   166      -4.876  33.702 238.424  1.00 20.00     0.043 A 
HETATM    2  C82 117   166      -4.303  34.006 237.159  1.00 20.00     0.017 A 
HETATM    3  C81 117   166      -3.408  35.088 237.036  1.00 20.00    -0.008 A 
HETATM    4  C86 117   166      -3.109  35.847 238.202  1.00 20.00     0.017 A 
HETATM    5  C85 117   166      -3.666  35.553 239.438  1.00 20.00     0.043 A 
HETATM    6  C84 117   166      -4.547  34.487 239.557  1.00 20.00     0.116 A 
HETATM    7  F1  117   166      -5.091  34.214 240.772  1.00 20.00    -0.206 F 
HETATM    8  C8  117   166      -2.782  35.490 235.821  1.00 20.00     0.057 A 
HETATM    9  N1  117   166      -1.391  35.314 235.562  1.00 20.00    -0.347 N 
HETATM   10  C10 117   166      -3.419  36.138 234.710  1.00 20.00     0.020 A 
HETATM   11  C11 117   166      -2.385  36.390 233.757  1.00 20.00     0.068 A 
HETATM   12  C9  117   166      -1.179  35.882 234.292  1.00 20.00     0.032 A 
ENDROOT
BRANCH   9  13
HETATM   13  C7  117   166      -0.359  34.676 236.447  1.00 20.00     0.132 C 
BRANCH  13  14
HETATM   14  C6  117   166       0.532  35.721 237.153  1.00 20.00     0.052 C 
BRANCH  14  15
HETATM   15  C5  117   166       2.004  35.289 237.153  1.00 20.00     0.122 C 
BRANCH  15  16
HETATM   16  C4  117   166       2.928  36.486 236.991  1.00 20.00     0.064 C 
BRANCH  16  17
HETATM   17  C3  117   166       2.949  37.302 238.261  1.00 20.00     0.130 C 
BRANCH  17  18
HETATM   18  C2  117   166       2.927  38.814 237.989  1.00 20.00     0.144 C 
BRANCH  18  19
HETATM   19  C1  117   166       1.525  39.363 237.728  1.00 20.00     0.175 C 
HETATM   20  O1A 117   166       1.294  39.560 236.422  1.00 20.00    -0.648 OA
HETATM   21  O1B 117   166       0.702  39.603 238.598  1.00 20.00    -0.648 OA
ENDBRANCH  18  19
ENDBRANCH  17  18
BRANCH  17  22
HETATM   22  O3  117   166       4.144  36.961 238.947  1.00 20.00    -0.395 OA
ATOM     23  H3  117   166       4.370  37.657 239.553  1.00  0.00     0.210 HD
ENDBRANCH  17  22
ENDBRANCH  16  17
ENDBRANCH  15  16
BRANCH  15  24
HETATM   24  O5  117   166       2.251  34.412 236.085  1.00 20.00    -0.395 OA
ATOM     25  H5  117   166       3.158  34.135 236.144  1.00  0.00     0.210 HD
ENDBRANCH  15  24
ENDBRANCH  14  15
ENDBRANCH  13  14
ENDBRANCH   9  13
BRANCH  12  26
HETATM   26  C91 117   166       0.243  35.900 233.656  1.00 20.00     0.028 C 
HETATM   27  C93 117   166       0.339  35.147 232.324  1.00 20.00     0.016 C 
HETATM   28  C92 117   166       0.759  37.331 233.470  1.00 20.00     0.016 C 
ENDBRANCH  12  26
BRANCH  10  29
HETATM   29  C12 117   166      -4.801  36.449 234.625  1.00 20.00    -0.023 A 
HETATM   30  C17 117   166      -5.309  37.714 234.989  1.00 20.00     0.012 A 
HETATM   31  C16 117   166      -6.684  37.980 234.930  1.00 20.00     0.001 A 
HETATM   32  C15 117   166      -7.580  36.983 234.509  1.00 20.00     0.000 A 
HETATM   33  C14 117   166      -7.104  35.714 234.145  1.00 20.00     0.001 A 
HETATM   34  C13 117   166      -5.729  35.444 234.203  1.00 20.00     0.012 A 
ENDBRANCH  10  29
BRANCH  11  35
HETATM   35  C18 117   166      -2.461  37.086 232.385  1.00 20.00     0.259 C 
HETATM   36  N2  117   166      -2.453  38.524 232.313  1.00 20.00    -0.323 N 
ATOM     37  H2  117   166      -2.375  39.019 233.201  1.00  0.00     0.169 HD
HETATM   38  O18 117   166      -2.544  36.381 231.381  1.00 20.00    -0.267 OA
BRANCH  36  39
HETATM   39  C19 117   166      -2.531  39.253 231.262  1.00 20.00     0.035 A 
HETATM   40  C20 117   166      -1.394  39.929 230.773  1.00 20.00     0.029 A 
HETATM   41  C21 117   166      -1.494  40.742 229.637  1.00 20.00     0.002 A 
HETATM   42  C22 117   166      -2.724  40.886 228.986  1.00 20.00     0.000 A 
HETATM   43  C23 117   166      -3.856  40.218 229.459  1.00 20.00     0.002 A 
HETATM   44  C24 117   166      -3.762  39.405 230.589  1.00 20.00     0.029 A 
ENDBRANCH  36  39
ENDBRANCH  11  35
TORSDOF 13
ENDMDL
MODEL 3
REMARK VINA RESULT:      -7.1      3.037      7.577
REMARK  13 active torsions:
REMARK  status: ('A' for Active; 'I' for Inactive)
REMARK    1  A    between atoms: C10_33  and  C12_2 
REMARK    2  A    between atoms: C19_15  and  N2_36 
REMARK    3  A    between atoms: C3_27  and  O3_23 
REMARK    4  A    between atoms: C1_25  and  C2_26 
REMARK    5  A    between atoms: C2_26  and  C3_27 
REMARK    6  A    between atoms: C3_27  and  C4_28 
REMARK    7  A    between atoms: C4_28  and  C5_29 
REMARK    8  A    between atoms: C5_29  and  O5_43 
REMARK    9  A    between atoms: C5_29  and  C6_30 
REMARK   10  A    between atoms: C6_30  and  C7_31 
REMARK   11  A    between atoms: C7_31  and  N1_32 
REMARK   12  A    between atoms: C11_34  and  C18_35 
REMARK       I    between atoms: C18_35  and  N2_36 
REMARK   13  A    between atoms: C9_39  and  C91_40 
ROOT
HETATM    1  C83 117   166      -6.880  38.006 235.004  1.00 20.00     0.043 A 
HETATM    2  C82 117   166      -5.474  37.796 235.028  1.00 20.00     0.017 A 
HETATM    3  C81 117   166      -4.906  36.765 234.251  1.00 20.00    -0.008 A 
HETATM    4  C86 117   166      -5.776  35.961 233.464  1.00 20.00     0.017 A 
HETATM    5  C85 117   166      -7.149  36.164 233.439  1.00 20.00     0.043 A 
HETATM    6  C84 117   166      -7.706  37.179 234.203  1.00 20.00     0.116 A 
HETATM    7  F1  117   166      -9.052  37.363 234.175  1.00 20.00    -0.206 F 
HETATM    8  C8  117   166      -3.515  36.458 234.204  1.00 20.00     0.057 A 
HETATM    9  N1  117   166      -2.697  36.712 233.064  1.00 20.00    -0.347 N 
HETATM   10  C10 117   166      -2.745  35.839 235.245  1.00 20.00     0.020 A 
HETATM   11  C11 117   166      -1.426  35.686 234.717  1.00 20.00     0.068 A 
HETATM   12  C9  117   166      -1.424  36.222 233.410  1.00 20.00     0.032 A 
ENDROOT
BRANCH   9  13
HETATM   13  C7  117   166      -3.094  37.350 231.764  1.00 20.00     0.132 C 
BRANCH  13  14
HETATM   14  C6  117   166      -3.096  38.891 231.847  1.00 20.00     0.052 C 
BRANCH  14  15
HETATM   15  C5  117   166      -2.791  39.522 230.482  1.00 20.00     0.122 C 
BRANCH  15  16
HETATM   16  C4  117   166      -1.460  40.259 230.501  1.00 20.00     0.064 C 
BRANCH  16  17
HETATM   17  C3  117   166      -1.479  41.393 229.505  1.00 20.00     0.130 C 
BRANCH  17  18
HETATM   18  C2  117   166      -0.079  41.728 228.969  1.00 20.00     0.144 C 
BRANCH  18  19
HETATM   19  C1  117   166       0.287  43.206 229.109  1.00 20.00     0.175 C 
HETATM   20  O1A 117   166       0.921  43.462 230.262  1.00 20.00    -0.648 OA
HETATM   21  O1B 117   166       0.033  44.064 228.278  1.00 20.00    -0.648 OA
ENDBRANCH  18  19
ENDBRANCH  17  18
BRANCH  17  22
HETATM   22  O3  117   166      -2.010  42.522 230.179  1.00 20.00    -0.395 OA
ATOM     23  H3  117   166      -1.673  42.549 231.067  1.00  0.00     0.210 HD
ENDBRANCH  17  22
ENDBRANCH  16  17
ENDBRANCH  15  16
BRANCH  15  24
HETATM   24  O5  117   166      -3.787  40.452 230.145  1.00 20.00    -0.395 OA
ATOM     25  H5  117   166      -3.372  41.158 229.663  1.00  0.00     0.210 HD
ENDBRANCH  15  24
ENDBRANCH  14  15
ENDBRANCH  13  14
ENDBRANCH   9  13
BRANCH  12  26
HETATM   26  C91 117   166      -0.240  36.304 232.401  1.00 20.00     0.028 C 
HETATM   27  C93 117   166       0.989  37.043 232.943  1.00 20.00     0.016 C 
HETATM   28  C92 117   166       0.179  34.914 231.909  1.00 20.00     0.016 C 
ENDBRANCH  12  26
BRANCH  10  29
HETATM   29  C12 117   166      -3.241  35.468 236.521  1.00 20.00    -0.023 A 
HETATM   30  C17 117   166      -2.984  36.236 237.677  1.00 20.00     0.012 A 
HETATM   31  C16 117   166      -3.455  35.826 238.932  1.00 20.00     0.001 A 
HETATM   32  C15 117   166      -4.190  34.634 239.056  1.00 20.00     0.000 A 
HETATM   33  C14 117   166      -4.457  33.848 237.925  1.00 20.00     0.001 A 
HETATM   34  C13 117   166      -3.987  34.255 236.668  1.00 20.00     0.012 A 
ENDBRANCH  10  29
BRANCH  11  35
HETATM   35  C18 117   166      -0.176  35.061 235.365  1.00 20.00     0.259 C 
HETATM   36  N2  117   166       0.067  33.648 235.228  1.00 20.00    -0.323 N 
ATOM     37  H2  117   166      -0.613  33.125 234.677  1.00  0.00     0.169 HD
HETATM   38  O18 117   166       0.578  35.795 236.000  1.00 20.00    -0.267 OA
BRANCH  36  39
HETATM   39  C19 117   166       1.039  32.972 235.718  1.00 20.00     0.035 A 
HETATM   40  C20 117   166       2.164  32.657 234.927  1.00 20.00     0.029 A 
HETATM   41  C21 117   166       3.211  31.899 235.464  1.00 20.00     0.002 A 
HETATM   42  C22 117   166       3.142  31.449 236.788  1.00 20.00     0.000 A 
HETATM   43  C23 117   166       2.035  31.759 237.582  1.00 20.00     0.002 A 
HETATM   44  C24 117   166       0.989  32.516 237.053  1.00 20.00     0.029 A 
ENDBRANCH  36  39
ENDBRANCH  11  35
TORSDOF 13
ENDMDL
MODEL 4
REMARK VINA RESULT:      -6.9      3.558      5.603
REMARK  13 active torsions:
REMARK  status: ('A' for Active; 'I' for Inactive)
REMARK    1  A    between atoms: C10_33  and  C12_2 
REMARK    2  A    between atoms: C19_15  and  N2_36 
REMARK    3  A    between atoms: C3_27  and  O3_23 
REMARK    4  A    between atoms: C1_25  and  C2_26 
REMARK    5  A    between atoms: C2_26  and  C3_27 
REMARK    6  A    between atoms: C3_27  and  C4_28 
REMARK    7  A    between atoms: C4_28  and  C5_29 
REMARK    8  A    between atoms: C5_29  and  O5_43 
REMARK    9  A    between atoms: C5_29  and  C6_30 
REMARK   10  A    between atoms: C6_30  and  C7_31 
REMARK   11  A    between atoms: C7_31  and  N1_32 
REMARK   12  A    between atoms: C11_34  and  C18_35 
REMARK       I    between atoms: C18_35  and  N2_36 
REMARK   13  A    between atoms: C9_39  and  C91_40 
ROOT
HETATM    1  C83 117   166      -0.163  38.432 236.591  1.00 20.00     0.043 A 
HETATM    2  C82 117   166      -0.405  37.206 235.914  1.00 20.00     0.017 A 
HETATM    3  C81 117   166       0.666  36.515 235.310  1.00 20.00    -0.008 A 
HETATM    4  C86 117   166       1.967  37.082 235.401  1.00 20.00     0.017 A 
HETATM    5  C85 117   166       2.206  38.279 236.062  1.00 20.00     0.043 A 
HETATM    6  C84 117   166       1.152  38.957 236.656  1.00 20.00     0.116 A 
HETATM    7  F1  117   166       1.399  40.131 237.293  1.00 20.00    -0.206 F 
HETATM    8  C8  117   166       0.540  35.286 234.599  1.00 20.00     0.057 A 
HETATM    9  N1  117   166       1.033  34.043 235.094  1.00 20.00    -0.347 N 
HETATM   10  C10 117   166      -0.054  35.109 233.305  1.00 20.00     0.020 A 
HETATM   11  C11 117   166       0.103  33.725 232.988  1.00 20.00     0.068 A 
HETATM   12  C9  117   166       0.754  33.108 234.080  1.00 20.00     0.032 A 
ENDROOT
BRANCH   9  13
HETATM   13  C7  117   166       1.715  33.774 236.404  1.00 20.00     0.132 C 
BRANCH  13  14
HETATM   14  C6  117   166       0.713  33.654 237.571  1.00 20.00     0.052 C 
BRANCH  14  15
HETATM   15  C5  117   166       1.311  34.193 238.878  1.00 20.00     0.122 C 
BRANCH  15  16
HETATM   16  C4  117   166       1.462  35.706 238.831  1.00 20.00     0.064 C 
BRANCH  16  17
HETATM   17  C3  117   166       2.809  36.110 239.378  1.00 20.00     0.130 C 
BRANCH  17  18
HETATM   18  C2  117   166       2.814  37.545 239.928  1.00 20.00     0.144 C 
BRANCH  18  19
HETATM   19  C1  117   166       4.126  38.287 239.678  1.00 20.00     0.175 C 
HETATM   20  O1A 117   166       3.975  39.308 238.823  1.00 20.00    -0.648 OA
HETATM   21  O1B 117   166       5.197  37.992 240.188  1.00 20.00    -0.648 OA
ENDBRANCH  18  19
ENDBRANCH  17  18
BRANCH  17  22
HETATM   22  O3  117   166       3.734  36.011 238.307  1.00 20.00    -0.395 OA
ATOM     23  H3  117   166       3.414  36.511 237.565  1.00  0.00     0.210 HD
ENDBRANCH  17  22
ENDBRANCH  16  17
ENDBRANCH  15  16
BRANCH  15  24
HETATM   24  O5  117   166       2.585  33.643 239.089  1.00 20.00    -0.395 OA
ATOM     25  H5  117   166       2.697  32.929 238.473  1.00  0.00     0.210 HD
ENDBRANCH  15  24
ENDBRANCH  14  15
ENDBRANCH  13  14
ENDBRANCH   9  13
BRANCH  12  26
HETATM   26  C91 117   166       1.162  31.614 234.242  1.00 20.00     0.028 C 
HETATM   27  C93 117   166       2.576  31.411 234.800  1.00 20.00     0.016 C 
HETATM   28  C92 117   166       0.159  30.846 235.112  1.00 20.00     0.016 C 
ENDBRANCH  12  26
BRANCH  10  29
HETATM   29  C12 117   166      -0.659  36.135 232.534  1.00 20.00    -0.023 A 
HETATM   30  C17 117   166       0.081  36.935 231.638  1.00 20.00     0.012 A 
HETATM   31  C16 117   166      -0.536  37.966 230.916  1.00 20.00     0.001 A 
HETATM   32  C15 117   166      -1.909  38.220 231.081  1.00 20.00     0.000 A 
HETATM   33  C14 117   166      -2.670  37.443 231.968  1.00 20.00     0.001 A 
HETATM   34  C13 117   166      -2.055  36.412 232.691  1.00 20.00     0.012 A 
ENDBRANCH  10  29
BRANCH  11  35
HETATM   35  C18 117   166      -0.313  32.954 231.720  1.00 20.00     0.259 C 
HETATM   36  N2  117   166       0.245  33.324 230.445  1.00 20.00    -0.323 N 
ATOM     37  H2  117   166       0.921  34.087 230.453  1.00  0.00     0.169 HD
HETATM   38  O18 117   166      -1.132  32.045 231.837  1.00 20.00    -0.267 OA
BRANCH  36  39
HETATM   39  C19 117   166      -0.009  32.804 229.302  1.00 20.00     0.035 A 
HETATM   40  C20 117   166       0.744  31.709 228.830  1.00 20.00     0.029 A 
HETATM   41  C21 117   166       0.475  31.161 227.570  1.00 20.00     0.002 A 
HETATM   42  C22 117   166      -0.542  31.702 226.775  1.00 20.00     0.000 A 
HETATM   43  C23 117   166      -1.297  32.784 227.234  1.00 20.00     0.002 A 
HETATM   44  C24 117   166      -1.034  33.333 228.490  1.00 20.00     0.029 A 
ENDBRANCH  36  39
ENDBRANCH  11  35
TORSDOF 13
ENDMDL
MODEL 5
REMARK VINA RESULT:      -6.6      2.627      7.679
REMARK  13 active torsions:
REMARK  status: ('A' for Active; 'I' for Inactive)
REMARK    1  A    between atoms: C10_33  and  C12_2 
REMARK    2  A    between atoms: C19_15  and  N2_36 
REMARK    3  A    between atoms: C3_27  and  O3_23 
REMARK    4  A    between atoms: C1_25  and  C2_26 
REMARK    5  A    between atoms: C2_26  and  C3_27 
REMARK    6  A    between atoms: C3_27  and  C4_28 
REMARK    7  A    between atoms: C4_28  and  C5_29 
REMARK    8  A    between atoms: C5_29  and  O5_43 
REMARK    9  A    between atoms: C5_29  and  C6_30 
REMARK   10  A    between atoms: C6_30  and  C7_31 
REMARK   11  A    between atoms: C7_31  and  N1_32 
REMARK   12  A    between atoms: C11_34  and  C18_35 
REMARK       I    between atoms: C18_35  and  N2_36 
REMARK   13  A    between atoms: C9_39  and  C91_40 
ROOT
HETATM    1  C83 117   166      -7.144  37.703 234.989  1.00 20.00     0.043 A 
HETATM    2  C82 117   166      -5.769  37.741 235.345  1.00 20.00     0.017 A 
HETATM    3  C81 117   166      -4.828  37.016 234.586  1.00 20.00    -0.008 A 
HETATM    4  C86 117   166      -5.299  36.261 233.477  1.00 20.00     0.017 A 
HETATM    5  C85 117   166      -6.641  36.221 233.126  1.00 20.00     0.043 A 
HETATM    6  C84 117   166      -7.566  36.936 233.874  1.00 20.00     0.116 A 
HETATM    7  F1  117   166      -8.878  36.884 233.525  1.00 20.00    -0.206 F 
HETATM    8  C8  117   166      -3.429  36.974 234.854  1.00 20.00     0.057 A 
HETATM    9  N1  117   166      -2.454  37.605 234.027  1.00 20.00    -0.347 N 
HETATM   10  C10 117   166      -2.793  36.290 235.944  1.00 20.00     0.020 A 
HETATM   11  C11 117   166      -1.389  36.486 235.764  1.00 20.00     0.068 A 
HETATM   12  C9  117   166      -1.214  37.282 234.609  1.00 20.00     0.032 A 
ENDROOT
BRANCH   9  13
HETATM   13  C7  117   166      -2.682  38.428 232.792  1.00 20.00     0.132 C 
BRANCH  13  14
HETATM   14  C6  117   166      -2.543  37.595 231.500  1.00 20.00     0.052 C 
BRANCH  14  15
HETATM   15  C5  117   166      -1.854  38.399 230.390  1.00 20.00     0.122 C 
BRANCH  15  16
HETATM   16  C4  117   166      -2.859  38.879 229.354  1.00 20.00     0.064 C 
BRANCH  16  17
HETATM   17  C3  117   166      -3.001  40.380 229.424  1.00 20.00     0.130 C 
BRANCH  17  18
HETATM   18  C2  117   166      -1.797  41.054 230.100  1.00 20.00     0.144 C 
BRANCH  18  19
HETATM   19  C1  117   166      -1.293  42.287 229.352  1.00 20.00     0.175 C 
HETATM   20  O1A 117   166      -0.510  43.059 230.119  1.00 20.00    -0.648 OA
HETATM   21  O1B 117   166      -1.566  42.553 228.191  1.00 20.00    -0.648 OA
ENDBRANCH  18  19
ENDBRANCH  17  18
BRANCH  17  22
HETATM   22  O3  117   166      -4.175  40.646 230.174  1.00 20.00    -0.395 OA
ATOM     23  H3  117   166      -4.729  41.250 229.693  1.00  0.00     0.210 HD
ENDBRANCH  17  22
ENDBRANCH  16  17
ENDBRANCH  15  16
BRANCH  15  24
HETATM   24  O5  117   166      -0.908  37.600 229.729  1.00 20.00    -0.395 OA
ATOM     25  H5  117   166      -0.721  36.854 230.286  1.00  0.00     0.210 HD
ENDBRANCH  15  24
ENDBRANCH  14  15
ENDBRANCH  13  14
ENDBRANCH   9  13
BRANCH  12  26
HETATM   26  C91 117   166       0.117  37.783 233.974  1.00 20.00     0.028 C 
HETATM   27  C93 117   166       1.145  38.282 234.996  1.00 20.00     0.016 C 
HETATM   28  C92 117   166       0.759  36.709 233.089  1.00 20.00     0.016 C 
ENDBRANCH  12  26
BRANCH  10  29
HETATM   29  C12 117   166      -3.466  35.573 236.967  1.00 20.00    -0.023 A 
HETATM   30  C17 117   166      -3.347  35.921 238.329  1.00 20.00     0.012 A 
HETATM   31  C16 117   166      -3.993  35.173 239.322  1.00 20.00     0.001 A 
HETATM   32  C15 117   166      -4.771  34.055 238.971  1.00 20.00     0.000 A 
HETATM   33  C14 117   166      -4.903  33.682 237.624  1.00 20.00     0.001 A 
HETATM   34  C13 117   166      -4.257  34.429 236.629  1.00 20.00     0.012 A 
ENDBRANCH  10  29
BRANCH  11  35
HETATM   35  C18 117   166      -0.208  35.964 236.604  1.00 20.00     0.259 C 
HETATM   36  N2  117   166       0.078  36.562 237.882  1.00 20.00    -0.323 N 
ATOM     37  H2  117   166      -0.548  37.310 238.180  1.00  0.00     0.169 HD
HETATM   38  O18 117   166       0.473  35.050 236.143  1.00 20.00    -0.267 OA
BRANCH  36  39
HETATM   39  C19 117   166       1.027  36.264 238.688  1.00 20.00     0.035 A 
HETATM   40  C20 117   166       2.224  37.010 238.695  1.00 20.00     0.029 A 
HETATM   41  C21 117   166       3.265  36.663 239.563  1.00 20.00     0.002 A 
HETATM   42  C22 117   166       3.122  35.570 240.426  1.00 20.00     0.000 A 
HETATM   43  C23 117   166       1.940  34.825 240.431  1.00 20.00     0.002 A 
HETATM   44  C24 117   166       0.897  35.169 239.569  1.00 20.00     0.029 A 
ENDBRANCH  36  39
ENDBRANCH  11  35
TORSDOF 13
ENDMDL
MODEL 6
REMARK VINA RESULT:      -6.6      3.059      5.303
REMARK  13 active torsions:
REMARK  status: ('A' for Active; 'I' for Inactive)
REMARK    1  A    between atoms: C10_33  and  C12_2 
REMARK    2  A    between atoms: C19_15  and  N2_36 
REMARK    3  A    between atoms: C3_27  and  O3_23 
REMARK    4  A    between atoms: C1_25  and  C2_26 
REMARK    5  A    between atoms: C2_26  and  C3_27 
REMARK    6  A    between atoms: C3_27  and  C4_28 
REMARK    7  A    between atoms: C4_28  and  C5_29 
REMARK    8  A    between atoms: C5_29  and  O5_43 
REMARK    9  A    between atoms: C5_29  and  C6_30 
REMARK   10  A    between atoms: C6_30  and  C7_31 
REMARK   11  A    between atoms: C7_31  and  N1_32 
REMARK   12  A    between atoms: C11_34  and  C18_35 
REMARK       I    between atoms: C18_35  and  N2_36 
REMARK   13  A    between atoms: C9_39  and  C91_40 
ROOT
HETATM    1  C83 117   166       2.068  34.379 238.226  1.00 20.00     0.043 A 
HETATM    2  C82 117   166       1.799  34.664 236.860  1.00 20.00     0.017 A 
HETATM    3  C81 117   166       0.506  35.067 236.469  1.00 20.00    -0.008 A 
HETATM    4  C86 117   166      -0.497  35.170 237.472  1.00 20.00     0.017 A 
HETATM    5  C85 117   166      -0.237  34.892 238.807  1.00 20.00     0.043 A 
HETATM    6  C84 117   166       1.036  34.498 239.190  1.00 20.00     0.116 A 
HETATM    7  F1  117   166       1.275  34.222 240.499  1.00 20.00    -0.206 F 
HETATM    8  C8  117   166       0.120  35.369 235.130  1.00 20.00     0.057 A 
HETATM    9  N1  117   166      -0.174  36.690 234.681  1.00 20.00    -0.347 N 
HETATM   10  C10 117   166      -0.057  34.426 234.063  1.00 20.00     0.020 A 
HETATM   11  C11 117   166      -0.497  35.187 232.937  1.00 20.00     0.068 A 
HETATM   12  C9  117   166      -0.555  36.543 233.334  1.00 20.00     0.032 A 
ENDROOT
BRANCH   9  13
HETATM   13  C7  117   166      -0.111  37.969 235.464  1.00 20.00     0.132 C 
BRANCH  13  14
HETATM   14  C6  117   166       1.338  38.470 235.648  1.00 20.00     0.052 C 
BRANCH  14  15
HETATM   15  C5  117   166       1.491  39.264 236.952  1.00 20.00     0.122 C 
BRANCH  15  16
HETATM   16  C4  117   166       1.080  38.429 238.156  1.00 20.00     0.064 C 
BRANCH  16  17
HETATM   17  C3  117   166       1.982  38.730 239.329  1.00 20.00     0.130 C 
BRANCH  17  18
HETATM   18  C2  117   166       3.413  39.084 238.895  1.00 20.00     0.144 C 
BRANCH  18  19
HETATM   19  C1  117   166       4.428  37.983 239.199  1.00 20.00     0.175 C 
HETATM   20  O1A 117   166       4.365  36.978 238.314  1.00 20.00    -0.648 OA
HETATM   21  O1B 117   166       5.210  38.002 240.137  1.00 20.00    -0.648 OA
ENDBRANCH  18  19
ENDBRANCH  17  18
BRANCH  17  22
HETATM   22  O3  117   166       2.007  37.564 240.136  1.00 20.00    -0.395 OA
ATOM     23  H3  117   166       1.122  37.238 240.250  1.00  0.00     0.210 HD
ENDBRANCH  17  22
ENDBRANCH  16  17
ENDBRANCH  15  16
BRANCH  15  24
HETATM   24  O5  117   166       0.672  40.403 236.924  1.00 20.00    -0.395 OA
ATOM     25  H5  117   166       0.874  40.923 237.694  1.00  0.00     0.210 HD
ENDBRANCH  15  24
ENDBRANCH  14  15
ENDBRANCH  13  14
ENDBRANCH   9  13
BRANCH  12  26
HETATM   26  C91 117   166      -0.974  37.780 232.487  1.00 20.00     0.028 C 
HETATM   27  C93 117   166      -0.360  37.810 231.081  1.00 20.00     0.016 C 
HETATM   28  C92 117   166      -2.498  37.900 232.378  1.00 20.00     0.016 C 
ENDBRANCH  12  26
BRANCH  10  29
HETATM   29  C12 117   166       0.169  33.029 234.157  1.00 20.00    -0.023 A 
HETATM   30  C17 117   166       1.436  32.456 233.920  1.00 20.00     0.012 A 
HETATM   31  C16 117   166       1.621  31.068 233.984  1.00 20.00     0.001 A 
HETATM   32  C15 117   166       0.538  30.223 234.283  1.00 20.00     0.000 A 
HETATM   33  C14 117   166      -0.735  30.764 234.519  1.00 20.00     0.001 A 
HETATM   34  C13 117   166      -0.923  32.152 234.455  1.00 20.00     0.012 A 
ENDBRANCH  10  29
BRANCH  11  35
HETATM   35  C18 117   166      -0.874  34.717 231.519  1.00 20.00     0.259 C 
HETATM   36  N2  117   166       0.165  34.437 230.561  1.00 20.00    -0.323 N 
ATOM     37  H2  117   166       1.123  34.551 230.889  1.00  0.00     0.169 HD
HETATM   38  O18 117   166      -2.066  34.609 231.241  1.00 20.00    -0.267 OA
BRANCH  36  39
HETATM   39  C19 117   166       0.023  34.061 229.345  1.00 20.00     0.035 A 
HETATM   40  C20 117   166      -0.082  32.692 229.025  1.00 20.00     0.029 A 
HETATM   41  C21 117   166      -0.214  32.288 227.691  1.00 20.00     0.002 A 
HETATM   42  C22 117   166      -0.239  33.245 226.670  1.00 20.00     0.000 A 
HETATM   43  C23 117   166      -0.140  34.605 226.975  1.00 20.00     0.002 A 
HETATM   44  C24 117   166      -0.011  35.013 228.303  1.00 20.00     0.029 A 
ENDBRANCH  36  39
ENDBRANCH  11  35
TORSDOF 13
ENDMDL
MODEL 7
REMARK VINA RESULT:      -6.4      2.799      4.523
REMARK  13 active torsions:
REMARK  status: ('A' for Active; 'I' for Inactive)
REMARK    1  A    between atoms: C10_33  and  C12_2 
REMARK    2  A    between atoms: C19_15  and  N2_36 
REMARK    3  A    between atoms: C3_27  and  O3_23 
REMARK    4  A    between atoms: C1_25  and  C2_26 
REMARK    5  A    between atoms: C2_26  and  C3_27 
REMARK    6  A    between atoms: C3_27  and  C4_28 
REMARK    7  A    between atoms: C4_28  and  C5_29 
REMARK    8  A    between atoms: C5_29  and  O5_43 
REMARK    9  A    between atoms: C5_29  and  C6_30 
REMARK   10  A    between atoms: C6_30  and  C7_31 
REMARK   11  A    between atoms: C7_31  and  N1_32 
REMARK   12  A    between atoms: C11_34  and  C18_35 
REMARK       I    between atoms: C18_35  and  N2_36 
REMARK   13  A    between atoms: C9_39  and  C91_40 
ROOT
HETATM    1  C83 117   166       1.945  33.356 235.867  1.00 20.00     0.043 A 
HETATM    2  C82 117   166       1.302  34.125 234.859  1.00 20.00     0.017 A 
HETATM    3  C81 117   166      -0.004  34.611 235.074  1.00 20.00    -0.008 A 
HETATM    4  C86 117   166      -0.639  34.305 236.309  1.00 20.00     0.017 A 
HETATM    5  C85 117   166      -0.014  33.555 237.295  1.00 20.00     0.043 A 
HETATM    6  C84 117   166       1.271  33.079 237.083  1.00 20.00     0.116 A 
HETATM    7  F1  117   166       1.869  32.340 238.054  1.00 20.00    -0.206 F 
HETATM    8  C8  117   166      -0.748  35.382 234.133  1.00 20.00     0.057 A 
HETATM    9  N1  117   166      -1.036  36.767 234.312  1.00 20.00    -0.347 N 
HETATM   10  C10 117   166      -1.331  34.902 232.913  1.00 20.00     0.020 A 
HETATM   11  C11 117   166      -2.017  36.018 232.342  1.00 20.00     0.068 A 
HETATM   12  C9  117   166      -1.820  37.124 233.200  1.00 20.00     0.032 A 
ENDROOT
BRANCH   9  13
HETATM   13  C7  117   166      -0.614  37.661 235.442  1.00 20.00     0.132 C 
BRANCH  13  14
HETATM   14  C6  117   166       0.769  38.299 235.196  1.00 20.00     0.052 C 
BRANCH  14  15
HETATM   15  C5  117   166       1.684  38.132 236.417  1.00 20.00     0.122 C 
BRANCH  15  16
HETATM   16  C4  117   166       1.637  39.361 237.312  1.00 20.00     0.064 C 
BRANCH  16  17
HETATM   17  C3  117   166       1.931  38.974 238.741  1.00 20.00     0.130 C 
BRANCH  17  18
HETATM   18  C2  117   166       3.421  39.107 239.092  1.00 20.00     0.144 C 
BRANCH  18  19
HETATM   19  C1  117   166       4.067  37.785 239.507  1.00 20.00     0.175 C 
HETATM   20  O1A 117   166       4.121  36.908 238.494  1.00 20.00    -0.648 OA
HETATM   21  O1B 117   166       4.487  37.541 240.628  1.00 20.00    -0.648 OA
ENDBRANCH  18  19
ENDBRANCH  17  18
BRANCH  17  22
HETATM   22  O3  117   166       1.529  37.622 238.891  1.00 20.00    -0.395 OA
ATOM     23  H3  117   166       1.995  37.081 238.264  1.00  0.00     0.210 HD
ENDBRANCH  17  22
ENDBRANCH  16  17
ENDBRANCH  15  16
BRANCH  15  24
HETATM   24  O5  117   166       3.014  37.956 236.004  1.00 20.00    -0.395 OA
ATOM     25  H5  117   166       3.562  38.505 236.553  1.00  0.00     0.210 HD
ENDBRANCH  15  24
ENDBRANCH  14  15
ENDBRANCH  13  14
ENDBRANCH   9  13
BRANCH  12  26
HETATM   26  C91 117   166      -2.356  38.578 233.039  1.00 20.00     0.028 C 
HETATM   27  C93 117   166      -1.701  39.360 231.894  1.00 20.00     0.016 C 
HETATM   28  C92 117   166      -3.879  38.602 232.865  1.00 20.00     0.016 C 
ENDBRANCH  12  26
BRANCH  10  29
HETATM   29  C12 117   166      -1.223  33.578 232.417  1.00 20.00    -0.023 A 
HETATM   30  C17 117   166      -1.983  32.514 232.948  1.00 20.00     0.012 A 
HETATM   31  C16 117   166      -1.828  31.208 232.464  1.00 20.00     0.001 A 
HETATM   32  C15 117   166      -0.904  30.938 231.440  1.00 20.00     0.000 A 
HETATM   33  C14 117   166      -0.131  31.976 230.896  1.00 20.00     0.001 A 
HETATM   34  C13 117   166      -0.283  33.283 231.378  1.00 20.00     0.012 A 
ENDBRANCH  10  29
BRANCH  11  35
HETATM   35  C18 117   166      -2.851  36.103 231.050  1.00 20.00     0.259 C 
HETATM   36  N2  117   166      -2.294  36.735 229.882  1.00 20.00    -0.323 N 
ATOM     37  H2  117   166      -1.341  37.087 229.971  1.00  0.00     0.169 HD
HETATM   38  O18 117   166      -3.988  35.635 231.060  1.00 20.00    -0.267 OA
BRANCH  36  39
HETATM   39  C19 117   166      -2.857  36.906 228.744  1.00 20.00     0.035 A 
HETATM   40  C20 117   166      -2.605  36.017 227.678  1.00 20.00     0.029 A 
HETATM   41  C21 117   166      -3.207  36.225 226.431  1.00 20.00     0.002 A 
HETATM   42  C22 117   166      -4.059  37.318 226.239  1.00 20.00     0.000 A 
HETATM   43  C23 117   166      -4.319  38.203 227.288  1.00 20.00     0.002 A 
HETATM   44  C24 117   166      -3.724  38.000 228.534  1.00 20.00     0.029 A 
ENDBRANCH  36  39
ENDBRANCH  11  35
TORSDOF 13
ENDMDL
MODEL 8
REMARK VINA RESULT:      -6.4      2.720      6.762
REMARK  13 active torsions:
REMARK  status: ('A' for Active; 'I' for Inactive)
REMARK    1  A    between atoms: C10_33  and  C12_2 
REMARK    2  A    between atoms: C19_15  and  N2_36 
REMARK    3  A    between atoms: C3_27  and  O3_23 
REMARK    4  A    between atoms: C1_25  and  C2_26 
REMARK    5  A    between atoms: C2_26  and  C3_27 
REMARK    6  A    between atoms: C3_27  and  C4_28 
REMARK    7  A    between atoms: C4_28  and  C5_29 
REMARK    8  A    between atoms: C5_29  and  O5_43 
REMARK    9  A    between atoms: C5_29  and  C6_30 
REMARK   10  A    between atoms: C6_30  and  C7_31 
REMARK   11  A    between atoms: C7_31  and  N1_32 
REMARK   12  A    between atoms: C11_34  and  C18_35 
REMARK       I    between atoms: C18_35  and  N2_36 
REMARK   13  A    between atoms: C9_39  and  C91_40 
ROOT
HETATM    1  C83 117   166      -3.540  38.903 231.420  1.00 20.00     0.043 A 
HETATM    2  C82 117   166      -3.376  38.464 232.762  1.00 20.00     0.017 A 
HETATM    3  C81 117   166      -3.049  37.118 233.025  1.00 20.00    -0.008 A 
HETATM    4  C86 117   166      -2.896  36.237 231.919  1.00 20.00     0.017 A 
HETATM    5  C85 117   166      -3.055  36.662 230.608  1.00 20.00     0.043 A 
HETATM    6  C84 117   166      -3.376  37.987 230.351  1.00 20.00     0.116 A 
HETATM    7  F1  117   166      -3.536  38.389 229.063  1.00 20.00    -0.206 F 
HETATM    8  C8  117   166      -2.870  36.566 234.327  1.00 20.00     0.057 A 
HETATM    9  N1  117   166      -1.601  36.166 234.838  1.00 20.00    -0.347 N 
HETATM   10  C10 117   166      -3.902  36.305 235.289  1.00 20.00     0.020 A 
HETATM   11  C11 117   166      -3.250  35.704 236.409  1.00 20.00     0.068 A 
HETATM   12  C9  117   166      -1.870  35.637 236.114  1.00 20.00     0.032 A 
ENDROOT
BRANCH   9  13
HETATM   13  C7  117   166      -0.260  36.268 234.169  1.00 20.00     0.132 C 
BRANCH  13  14
HETATM   14  C6  117   166       0.190  37.732 233.983  1.00 20.00     0.052 C 
BRANCH  14  15
HETATM   15  C5  117   166       1.052  38.205 235.161  1.00 20.00     0.122 C 
BRANCH  15  16
HETATM   16  C4  117   166       1.835  37.050 235.767  1.00 20.00     0.064 C 
BRANCH  16  17
HETATM   17  C3  117   166       2.937  37.578 236.654  1.00 20.00     0.130 C 
BRANCH  17  18
HETATM   18  C2  117   166       2.725  37.218 238.132  1.00 20.00     0.144 C 
BRANCH  18  19
HETATM   19  C1  117   166       2.577  38.440 239.039  1.00 20.00     0.175 C 
HETATM   20  O1A 117   166       1.359  38.992 238.949  1.00 20.00    -0.648 OA
HETATM   21  O1B 117   166       3.459  38.876 239.763  1.00 20.00    -0.648 OA
ENDBRANCH  18  19
ENDBRANCH  17  18
BRANCH  17  22
HETATM   22  O3  117   166       2.941  38.989 236.506  1.00 20.00    -0.395 OA
ATOM     23  H3  117   166       3.315  39.218 235.663  1.00  0.00     0.210 HD
ENDBRANCH  17  22
ENDBRANCH  16  17
ENDBRANCH  15  16
BRANCH  15  24
HETATM   24  O5  117   166       0.240  38.745 236.170  1.00 20.00    -0.395 OA
ATOM     25  H5  117   166       0.659  38.568 237.003  1.00  0.00     0.210 HD
ENDBRANCH  15  24
ENDBRANCH  14  15
ENDBRANCH  13  14
ENDBRANCH   9  13
BRANCH  12  26
HETATM   26  C91 117   166      -0.719  35.071 236.998  1.00 20.00     0.028 C 
HETATM   27  C93 117   166      -0.532  35.813 238.327  1.00 20.00     0.016 C 
HETATM   28  C92 117   166      -0.904  33.574 237.274  1.00 20.00     0.016 C 
ENDBRANCH  12  26
BRANCH  10  29
HETATM   29  C12 117   166      -5.279  36.598 235.114  1.00 20.00    -0.023 A 
HETATM   30  C17 117   166      -5.776  37.918 235.153  1.00 20.00     0.012 A 
HETATM   31  C16 117   166      -7.146  38.175 235.015  1.00 20.00     0.001 A 
HETATM   32  C15 117   166      -8.051  37.113 234.839  1.00 20.00     0.000 A 
HETATM   33  C14 117   166      -7.586  35.790 234.800  1.00 20.00     0.001 A 
HETATM   34  C13 117   166      -6.216  35.529 234.939  1.00 20.00     0.012 A 
ENDBRANCH  10  29
BRANCH  11  35
HETATM   35  C18 117   166      -3.847  35.184 237.731  1.00 20.00     0.259 C 
HETATM   36  N2  117   166      -4.505  33.904 237.761  1.00 20.00    -0.323 N 
ATOM     37  H2  117   166      -4.524  33.386 236.883  1.00  0.00     0.169 HD
HETATM   38  O18 117   166      -3.756  35.896 238.729  1.00 20.00    -0.267 OA
BRANCH  36  39
HETATM   39  C19 117   166      -5.068  33.340 238.764  1.00 20.00     0.035 A 
HETATM   40  C20 117   166      -6.453  33.490 238.986  1.00 20.00     0.029 A 
HETATM   41  C21 117   166      -7.057  32.890 240.097  1.00 20.00     0.002 A 
HETATM   42  C22 117   166      -6.285  32.140 240.993  1.00 20.00     0.000 A 
HETATM   43  C23 117   166      -4.914  31.981 240.781  1.00 20.00     0.002 A 
HETATM   44  C24 117   166      -4.307  32.575 239.674  1.00 20.00     0.029 A 
ENDBRANCH  36  39
ENDBRANCH  11  35
TORSDOF 13
ENDMDL
MODEL 9
REMARK VINA RESULT:      -6.4      1.610      2.207
REMARK  13 active torsions:
REMARK  status: ('A' for Active; 'I' for Inactive)
REMARK    1  A    between atoms: C10_33  and  C12_2 
REMARK    2  A    between atoms: C19_15  and  N2_36 
REMARK    3  A    between atoms: C3_27  and  O3_23 
REMARK    4  A    between atoms: C1_25  and  C2_26 
REMARK    5  A    between atoms: C2_26  and  C3_27 
REMARK    6  A    between atoms: C3_27  and  C4_28 
REMARK    7  A    between atoms: C4_28  and  C5_29 
REMARK    8  A    between atoms: C5_29  and  O5_43 
REMARK    9  A    between atoms: C5_29  and  C6_30 
REMARK   10  A    between atoms: C6_30  and  C7_31 
REMARK   11  A    between atoms: C7_31  and  N1_32 
REMARK   12  A    between atoms: C11_34  and  C18_35 
REMARK       I    between atoms: C18_35  and  N2_36 
REMARK   13  A    between atoms: C9_39  and  C91_40 
ROOT
HETATM    1  C83 117   166      -3.718  34.418 237.572  1.00 20.00     0.043 A 
HETATM    2  C82 117   166      -3.670  34.574 236.160  1.00 20.00     0.017 A 
HETATM    3  C81 117   166      -2.937  35.638 235.596  1.00 20.00    -0.008 A 
HETATM    4  C86 117   166      -2.265  36.530 236.477  1.00 20.00     0.017 A 
HETATM    5  C85 117   166      -2.309  36.380 237.856  1.00 20.00     0.043 A 
HETATM    6  C84 117   166      -3.030  35.332 238.408  1.00 20.00     0.116 A 
HETATM    7  F1  117   166      -3.071  35.200 239.760  1.00 20.00    -0.206 F 
HETATM    8  C8  117   166      -2.827  35.898 234.199  1.00 20.00     0.057 A 
HETATM    9  N1  117   166      -1.624  35.700 233.459  1.00 20.00    -0.347 N 
HETATM   10  C10 117   166      -3.861  36.409 233.345  1.00 20.00     0.020 A 
HETATM   11  C11 117   166      -3.267  36.552 232.054  1.00 20.00     0.068 A 
HETATM   12  C9  117   166      -1.926  36.116 232.150  1.00 20.00     0.032 A 
ENDROOT
BRANCH   9  13
HETATM   13  C7  117   166      -0.309  35.175 233.957  1.00 20.00     0.132 C 
BRANCH  13  14
HETATM   14  C6  117   166       0.727  36.300 234.169  1.00 20.00     0.052 C 
BRANCH  14  15
HETATM   15  C5  117   166       1.048  36.488 235.658  1.00 20.00     0.122 C 
BRANCH  15  16
HETATM   16  C4  117   166       1.809  37.784 235.897  1.00 20.00     0.064 C 
BRANCH  16  17
HETATM   17  C3  117   166       2.882  37.572 236.937  1.00 20.00     0.130 C 
BRANCH  17  18
HETATM   18  C2  117   166       2.939  38.713 237.964  1.00 20.00     0.144 C 
BRANCH  18  19
HETATM   19  C1  117   166       3.485  38.278 239.324  1.00 20.00     0.175 C 
HETATM   20  O1A 117   166       4.294  37.213 239.227  1.00 20.00    -0.648 OA
HETATM   21  O1B 117   166       3.221  38.825 240.383  1.00 20.00    -0.648 OA
ENDBRANCH  18  19
ENDBRANCH  17  18
BRANCH  17  22
HETATM   22  O3  117   166       4.117  37.499 236.242  1.00 20.00    -0.395 OA
ATOM     23  H3  117   166       4.477  38.372 236.141  1.00  0.00     0.210 HD
ENDBRANCH  17  22
ENDBRANCH  16  17
ENDBRANCH  15  16
BRANCH  15  24
HETATM   24  O5  117   166       1.850  35.432 236.118  1.00 20.00    -0.395 OA
ATOM     25  H5  117   166       1.310  34.878 236.668  1.00  0.00     0.210 HD
ENDBRANCH  15  24
ENDBRANCH  14  15
ENDBRANCH  13  14
ENDBRANCH   9  13
BRANCH  12  26
HETATM   26  C91 117   166      -0.844  36.066 231.031  1.00 20.00     0.028 C 
HETATM   27  C93 117   166      -1.332  35.434 229.721  1.00 20.00     0.016 C 
HETATM   28  C92 117   166      -0.268  37.457 230.741  1.00 20.00     0.016 C 
ENDBRANCH  12  26
BRANCH  10  29
HETATM   29  C12 117   166      -5.189  36.701 233.750  1.00 20.00    -0.023 A 
HETATM   30  C17 117   166      -5.524  37.897 234.418  1.00 20.00     0.012 A 
HETATM   31  C16 117   166      -6.837  38.143 234.840  1.00 20.00     0.001 A 
HETATM   32  C15 117   166      -7.845  37.191 234.605  1.00 20.00     0.000 A 
HETATM   33  C14 117   166      -7.540  35.989 233.946  1.00 20.00     0.001 A 
HETATM   34  C13 117   166      -6.227  35.741 233.524  1.00 20.00     0.012 A 
ENDBRANCH  10  29
BRANCH  11  35
HETATM   35  C18 117   166      -3.880  37.082 230.744  1.00 20.00     0.259 C 
HETATM   36  N2  117   166      -3.477  38.367 230.236  1.00 20.00    -0.323 N 
ATOM     37  H2  117   166      -2.771  38.865 230.778  1.00  0.00     0.169 HD
HETATM   38  O18 117   166      -4.719  36.387 230.173  1.00 20.00    -0.267 OA
BRANCH  36  39
HETATM   39  C19 117   166      -3.902  38.958 229.181  1.00 20.00     0.035 A 
HETATM   40  C20 117   166      -4.363  40.290 229.242  1.00 20.00     0.029 A 
HETATM   41  C21 117   166      -4.848  40.920 228.090  1.00 20.00     0.002 A 
HETATM   42  C22 117   166      -4.878  40.227 226.874  1.00 20.00     0.000 A 
HETATM   43  C23 117   166      -4.421  38.909 226.801  1.00 20.00     0.002 A 
HETATM   44  C24 117   166      -3.935  38.277 227.946  1.00 20.00     0.029 A 
ENDBRANCH  36  39
ENDBRANCH  11  35
TORSDOF 13
ENDMDL
