MODEL 1
REMARK VINA RESULT:      -6.2      0.000      0.000
REMARK  4 active torsions:
REMARK  status: ('A' for Active; 'I' for Inactive)
REMARK    1  A    between atoms: C17_5  and  N2_2 
REMARK    2  A    between atoms: C16_6  and  C17_5 
REMARK    3  A    between atoms: C15_7  and  C16_6 
REMARK    4  A    between atoms: C15_7  and  N1_8 
ROOT
HETATM    1  N1  DSM  3206       0.530  36.492 237.786  1.00 20.00    -0.346 N 
HETATM    2  C14 DSM  3206       1.587  36.881 238.690  1.00 20.00     0.041 A 
HETATM    3  C1  DSM  3206       2.318  35.940 239.484  1.00 20.00     0.030 A 
HETATM    4  C2  DSM  3206       3.349  36.385 240.360  1.00 20.00     0.002 A 
HETATM    5  C3  DSM  3206       3.682  37.746 240.403  1.00 20.00     0.001 A 
HETATM    6  C4  DSM  3206       2.974  38.651 239.626  1.00 20.00     0.009 A 
HETATM    7  C13 DSM  3206       1.948  38.242 238.740  1.00 20.00    -0.031 A 
HETATM    8  C5  DSM  3206       1.254  39.281 237.941  1.00 20.00     0.045 C 
HETATM    9  C6  DSM  3206       1.514  39.222 236.442  1.00 20.00     0.045 C 
HETATM   10  C12 DSM  3206       1.157  37.899 235.691  1.00 20.00    -0.031 A 
HETATM   11  C11 DSM  3206       0.698  36.643 236.340  1.00 20.00     0.041 A 
HETATM   12  C7  DSM  3206       1.276  37.892 234.289  1.00 20.00     0.009 A 
HETATM   13  C8  DSM  3206       0.991  36.775 233.506  1.00 20.00     0.001 A 
HETATM   14  C9  DSM  3206       0.554  35.588 234.096  1.00 20.00     0.002 A 
HETATM   15  C10 DSM  3206       0.412  35.521 235.502  1.00 20.00     0.030 A 
ENDROOT
BRANCH   1  16
HETATM   16  C15 DSM  3206      -0.659  35.676 238.277  1.00 20.00     0.131 C 
BRANCH  16  17
HETATM   17  C16 DSM  3206      -2.071  36.317 238.164  1.00 20.00     0.048 C 
BRANCH  17  18
HETATM   18  C17 DSM  3206      -3.158  35.335 238.491  1.00 20.00     0.233 C 
BRANCH  18  19
HETATM   19  N2  DSM  3206      -3.773  35.559 239.835  1.00 20.00    -0.079 N 
HETATM   20  C18 DSM  3206      -4.634  34.433 240.233  1.00 20.00     0.266 C 
ATOM     21  H22 DSM  3206      -3.063  35.753 240.541  1.00  0.00     0.276 HD
ATOM     22  H21 DSM  3206      -4.277  36.445 239.869  1.00  0.00     0.276 HD
ENDBRANCH  18  19
ENDBRANCH  17  18
ENDBRANCH  16  17
ENDBRANCH   1  16
TORSDOF 4
ENDMDL
MODEL 2
REMARK VINA RESULT:      -6.2      3.580      6.511
REMARK  4 active torsions:
REMARK  status: ('A' for Active; 'I' for Inactive)
REMARK    1  A    between atoms: C17_5  and  N2_2 
REMARK    2  A    between atoms: C16_6  and  C17_5 
REMARK    3  A    between atoms: C15_7  and  C16_6 
REMARK    4  A    between atoms: C15_7  and  N1_8 
ROOT
HETATM    1  N1  DSM  3206       0.505  36.880 234.233  1.00 20.00    -0.346 N 
HETATM    2  C14 DSM  3206       0.456  36.226 232.946  1.00 20.00     0.041 A 
HETATM    3  C1  DSM  3206       0.845  36.873 231.729  1.00 20.00     0.030 A 
HETATM    4  C2  DSM  3206       0.773  36.176 230.488  1.00 20.00     0.002 A 
HETATM    5  C3  DSM  3206       0.370  34.834 230.471  1.00 20.00     0.001 A 
HETATM    6  C4  DSM  3206       0.002  34.211 231.655  1.00 20.00     0.009 A 
HETATM    7  C13 DSM  3206       0.067  34.873 232.905  1.00 20.00    -0.031 A 
HETATM    8  C5  DSM  3206      -0.336  34.122 234.119  1.00 20.00     0.045 C 
HETATM    9  C6  DSM  3206       0.794  33.813 235.091  1.00 20.00     0.045 C 
HETATM   10  C12 DSM  3206       1.607  35.015 235.670  1.00 20.00    -0.031 A 
HETATM   11  C11 DSM  3206       1.451  36.434 235.256  1.00 20.00     0.041 A 
HETATM   12  C7  DSM  3206       2.563  34.738 236.666  1.00 20.00     0.009 A 
HETATM   13  C8  DSM  3206       3.352  35.720 237.259  1.00 20.00     0.001 A 
HETATM   14  C9  DSM  3206       3.217  37.059 236.887  1.00 20.00     0.002 A 
HETATM   15  C10 DSM  3206       2.276  37.413 235.891  1.00 20.00     0.030 A 
ENDROOT
BRANCH   1  16
HETATM   16  C15 DSM  3206      -0.219  38.200 234.467  1.00 20.00     0.131 C 
BRANCH  16  17
HETATM   17  C16 DSM  3206      -1.711  38.291 234.041  1.00 20.00     0.048 C 
BRANCH  17  18
HETATM   18  C17 DSM  3206      -1.888  39.124 232.805  1.00 20.00     0.233 C 
BRANCH  18  19
HETATM   19  N2  DSM  3206      -3.298  39.151 232.307  1.00 20.00    -0.079 N 
HETATM   20  C18 DSM  3206      -4.165  38.247 233.083  1.00 20.00     0.266 C 
ATOM     21  H22 DSM  3206      -3.669  40.101 232.292  1.00  0.00     0.276 HD
ATOM     22  H21 DSM  3206      -3.344  38.946 231.309  1.00  0.00     0.276 HD
ENDBRANCH  18  19
ENDBRANCH  17  18
ENDBRANCH  16  17
ENDBRANCH   1  16
TORSDOF 4
ENDMDL
MODEL 3
REMARK VINA RESULT:      -6.0      2.160      3.055
REMARK  4 active torsions:
REMARK  status: ('A' for Active; 'I' for Inactive)
REMARK    1  A    between atoms: C17_5  and  N2_2 
REMARK    2  A    between atoms: C16_6  and  C17_5 
REMARK    3  A    between atoms: C15_7  and  C16_6 
REMARK    4  A    between atoms: C15_7  and  N1_8 
ROOT
HETATM    1  N1  DSM  3206       0.284  35.150 235.053  1.00 20.00    -0.346 N 
HETATM    2  C14 DSM  3206       1.421  35.388 235.912  1.00 20.00     0.041 A 
HETATM    3  C1  DSM  3206       2.124  34.336 236.583  1.00 20.00     0.030 A 
HETATM    4  C2  DSM  3206       3.238  34.634 237.419  1.00 20.00     0.002 A 
HETATM    5  C3  DSM  3206       3.677  35.960 237.541  1.00 20.00     0.001 A 
HETATM    6  C4  DSM  3206       2.996  36.973 236.882  1.00 20.00     0.009 A 
HETATM    7  C13 DSM  3206       1.889  36.711 236.039  1.00 20.00    -0.031 A 
HETATM    8  C5  DSM  3206       1.231  37.858 235.367  1.00 20.00     0.045 C 
HETATM    9  C6  DSM  3206       1.394  37.899 233.854  1.00 20.00     0.045 C 
HETATM   10  C12 DSM  3206       0.891  36.670 233.032  1.00 20.00    -0.031 A 
HETATM   11  C11 DSM  3206       0.375  35.402 233.615  1.00 20.00     0.041 A 
HETATM   12  C7  DSM  3206       0.923  36.765 231.628  1.00 20.00     0.009 A 
HETATM   13  C8  DSM  3206       0.505  35.738 230.786  1.00 20.00     0.001 A 
HETATM   14  C9  DSM  3206       0.014  34.542 231.313  1.00 20.00     0.002 A 
HETATM   15  C10 DSM  3206      -0.047  34.375 232.716  1.00 20.00     0.030 A 
ENDROOT
BRANCH   1  16
HETATM   16  C15 DSM  3206      -0.933  34.387 235.560  1.00 20.00     0.131 C 
BRANCH  16  17
HETATM   17  C16 DSM  3206      -2.293  35.140 235.599  1.00 20.00     0.048 C 
BRANCH  17  18
HETATM   18  C17 DSM  3206      -2.149  36.521 236.168  1.00 20.00     0.233 C 
BRANCH  18  19
HETATM   19  N2  DSM  3206      -1.869  36.530 237.636  1.00 20.00    -0.079 N 
HETATM   20  C18 DSM  3206      -3.019  36.036 238.413  1.00 20.00     0.266 C 
ATOM     21  H22 DSM  3206      -1.020  36.009 237.856  1.00  0.00     0.276 HD
ATOM     22  H21 DSM  3206      -1.575  37.453 237.954  1.00  0.00     0.276 HD
ENDBRANCH  18  19
ENDBRANCH  17  18
ENDBRANCH  16  17
ENDBRANCH   1  16
TORSDOF 4
ENDMDL
MODEL 4
REMARK VINA RESULT:      -6.0      2.812      6.213
REMARK  4 active torsions:
REMARK  status: ('A' for Active; 'I' for Inactive)
REMARK    1  A    between atoms: C17_5  and  N2_2 
REMARK    2  A    between atoms: C16_6  and  C17_5 
REMARK    3  A    between atoms: C15_7  and  C16_6 
REMARK    4  A    between atoms: C15_7  and  N1_8 
ROOT
HETATM    1  N1  DSM  3206       0.614  35.898 234.706  1.00 20.00    -0.346 N 
HETATM    2  C14 DSM  3206       0.539  35.817 233.266  1.00 20.00     0.041 A 
HETATM    3  C1  DSM  3206       1.038  36.844 232.402  1.00 20.00     0.030 A 
HETATM    4  C2  DSM  3206       0.934  36.709 230.988  1.00 20.00     0.002 A 
HETATM    5  C3  DSM  3206       0.388  35.538 230.443  1.00 20.00     0.001 A 
HETATM    6  C4  DSM  3206      -0.087  34.544 231.286  1.00 20.00     0.009 A 
HETATM    7  C13 DSM  3206       0.006  34.644 232.695  1.00 20.00    -0.031 A 
HETATM    8  C5  DSM  3206      -0.518  33.525 233.515  1.00 20.00     0.045 C 
HETATM    9  C6  DSM  3206       0.537  32.730 234.271  1.00 20.00     0.045 C 
HETATM   10  C12 DSM  3206       1.455  33.503 235.271  1.00 20.00    -0.031 A 
HETATM   11  C11 DSM  3206       1.470  34.978 235.457  1.00 20.00     0.041 A 
HETATM   12  C7  DSM  3206       2.340  32.748 236.064  1.00 20.00     0.009 A 
HETATM   13  C8  DSM  3206       3.211  33.318 236.989  1.00 20.00     0.001 A 
HETATM   14  C9  DSM  3206       3.236  34.701 237.181  1.00 20.00     0.002 A 
HETATM   15  C10 DSM  3206       2.375  35.524 236.419  1.00 20.00     0.030 A 
ENDROOT
BRANCH   1  16
HETATM   16  C15 DSM  3206       0.031  37.090 235.454  1.00 20.00     0.131 C 
BRANCH  16  17
HETATM   17  C16 DSM  3206      -1.017  36.803 236.566  1.00 20.00     0.048 C 
BRANCH  17  18
HETATM   18  C17 DSM  3206      -0.619  37.411 237.879  1.00 20.00     0.233 C 
BRANCH  18  19
HETATM   19  N2  DSM  3206       0.566  38.317 237.776  1.00 20.00    -0.079 N 
HETATM   20  C18 DSM  3206       0.306  39.624 238.403  1.00 20.00     0.266 C 
ATOM     21  H22 DSM  3206       1.403  37.880 238.160  1.00  0.00     0.276 HD
ATOM     22  H21 DSM  3206       0.871  38.422 236.808  1.00  0.00     0.276 HD
ENDBRANCH  18  19
ENDBRANCH  17  18
ENDBRANCH  16  17
ENDBRANCH   1  16
TORSDOF 4
ENDMDL
MODEL 5
REMARK VINA RESULT:      -5.9      2.704      5.459
REMARK  4 active torsions:
REMARK  status: ('A' for Active; 'I' for Inactive)
REMARK    1  A    between atoms: C17_5  and  N2_2 
REMARK    2  A    between atoms: C16_6  and  C17_5 
REMARK    3  A    between atoms: C15_7  and  C16_6 
REMARK    4  A    between atoms: C15_7  and  N1_8 
ROOT
HETATM    1  N1  DSM  3206       1.966  35.779 237.474  1.00 20.00    -0.346 N 
HETATM    2  C14 DSM  3206       2.495  34.440 237.355  1.00 20.00     0.041 A 
HETATM    3  C1  DSM  3206       3.018  33.916 236.129  1.00 20.00     0.030 A 
HETATM    4  C2  DSM  3206       3.524  32.585 236.074  1.00 20.00     0.002 A 
HETATM    5  C3  DSM  3206       3.558  31.808 237.240  1.00 20.00     0.001 A 
HETATM    6  C4  DSM  3206       3.056  32.325 238.425  1.00 20.00     0.009 A 
HETATM    7  C13 DSM  3206       2.551  33.645 238.517  1.00 20.00    -0.031 A 
HETATM    8  C5  DSM  3206       2.046  34.114 239.830  1.00 20.00     0.045 C 
HETATM    9  C6  DSM  3206       2.877  35.208 240.486  1.00 20.00     0.045 C 
HETATM   10  C12 DSM  3206       3.091  36.537 239.692  1.00 20.00    -0.031 A 
HETATM   11  C11 DSM  3206       2.654  36.778 238.292  1.00 20.00     0.041 A 
HETATM   12  C7  DSM  3206       3.747  37.593 240.352  1.00 20.00     0.009 A 
HETATM   13  C8  DSM  3206       4.000  38.825 239.753  1.00 20.00     0.001 A 
HETATM   14  C9  DSM  3206       3.594  39.073 238.440  1.00 20.00     0.002 A 
HETATM   15  C10 DSM  3206       2.929  38.056 237.714  1.00 20.00     0.030 A 
ENDROOT
BRANCH   1  16
HETATM   16  C15 DSM  3206       0.851  36.264 236.556  1.00 20.00     0.131 C 
BRANCH  16  17
HETATM   17  C16 DSM  3206       1.171  36.402 235.041  1.00 20.00     0.048 C 
BRANCH  17  18
HETATM   18  C17 DSM  3206       1.251  37.839 234.616  1.00 20.00     0.233 C 
BRANCH  18  19
HETATM   19  N2  DSM  3206      -0.011  38.600 234.866  1.00 20.00    -0.079 N 
HETATM   20  C18 DSM  3206      -1.097  38.159 233.973  1.00 20.00     0.266 C 
ATOM     21  H22 DSM  3206      -0.290  38.548 235.845  1.00  0.00     0.276 HD
ATOM     22  H21 DSM  3206       0.141  39.606 234.798  1.00  0.00     0.276 HD
ENDBRANCH  18  19
ENDBRANCH  17  18
ENDBRANCH  16  17
ENDBRANCH   1  16
TORSDOF 4
ENDMDL
MODEL 6
REMARK VINA RESULT:      -5.5      2.307      4.943
REMARK  4 active torsions:
REMARK  status: ('A' for Active; 'I' for Inactive)
REMARK    1  A    between atoms: C17_5  and  N2_2 
REMARK    2  A    between atoms: C16_6  and  C17_5 
REMARK    3  A    between atoms: C15_7  and  C16_6 
REMARK    4  A    between atoms: C15_7  and  N1_8 
ROOT
HETATM    1  N1  DSM  3206       0.551  35.243 236.461  1.00 20.00    -0.346 N 
HETATM    2  C14 DSM  3206       0.948  34.113 235.652  1.00 20.00     0.041 A 
HETATM    3  C1  DSM  3206       0.431  33.879 234.337  1.00 20.00     0.030 A 
HETATM    4  C2  DSM  3206       0.859  32.745 233.587  1.00 20.00     0.002 A 
HETATM    5  C3  DSM  3206       1.831  31.888 234.123  1.00 20.00     0.001 A 
HETATM    6  C4  DSM  3206       2.332  32.126 235.394  1.00 20.00     0.009 A 
HETATM    7  C13 DSM  3206       1.932  33.245 236.163  1.00 20.00    -0.031 A 
HETATM    8  C5  DSM  3206       2.532  33.424 237.508  1.00 20.00     0.045 C 
HETATM    9  C6  DSM  3206       3.456  34.625 237.649  1.00 20.00     0.045 C 
HETATM   10  C12 DSM  3206       2.869  36.038 237.332  1.00 20.00    -0.031 A 
HETATM   11  C11 DSM  3206       1.512  36.299 236.782  1.00 20.00     0.041 A 
HETATM   12  C7  DSM  3206       3.685  37.156 237.587  1.00 20.00     0.009 A 
HETATM   13  C8  DSM  3206       3.278  38.466 237.344  1.00 20.00     0.001 A 
HETATM   14  C9  DSM  3206       2.007  38.732 236.833  1.00 20.00     0.002 A 
HETATM   15  C10 DSM  3206       1.132  37.656 236.551  1.00 20.00     0.030 A 
ENDROOT
BRANCH   1  16
HETATM   16  C15 DSM  3206      -0.916  35.506 236.772  1.00 20.00     0.131 C 
BRANCH  16  17
HETATM   17  C16 DSM  3206      -1.330  35.615 238.266  1.00 20.00     0.048 C 
BRANCH  17  18
HETATM   18  C17 DSM  3206      -0.628  34.595 239.115  1.00 20.00     0.233 C 
BRANCH  18  19
HETATM   19  N2  DSM  3206       0.402  35.188 240.022  1.00 20.00    -0.079 N 
HETATM   20  C18 DSM  3206       0.989  34.174 240.915  1.00 20.00     0.266 C 
ATOM     21  H22 DSM  3206       1.121  35.682 239.494  1.00  0.00     0.276 HD
ATOM     22  H21 DSM  3206       0.024  35.975 240.549  1.00  0.00     0.276 HD
ENDBRANCH  18  19
ENDBRANCH  17  18
ENDBRANCH  16  17
ENDBRANCH   1  16
TORSDOF 4
ENDMDL
MODEL 7
REMARK VINA RESULT:      -5.5      3.469      6.259
REMARK  4 active torsions:
REMARK  status: ('A' for Active; 'I' for Inactive)
REMARK    1  A    between atoms: C17_5  and  N2_2 
REMARK    2  A    between atoms: C16_6  and  C17_5 
REMARK    3  A    between atoms: C15_7  and  C16_6 
REMARK    4  A    between atoms: C15_7  and  N1_8 
ROOT
HETATM    1  N1  DSM  3206       0.594  34.954 234.962  1.00 20.00    -0.346 N 
HETATM    2  C14 DSM  3206       0.530  35.369 233.579  1.00 20.00     0.041 A 
HETATM    3  C1  DSM  3206       0.929  36.673 233.139  1.00 20.00     0.030 A 
HETATM    4  C2  DSM  3206       0.841  37.025 231.761  1.00 20.00     0.002 A 
HETATM    5  C3  DSM  3206       0.412  36.070 230.829  1.00 20.00     0.001 A 
HETATM    6  C4  DSM  3206       0.035  34.807 231.262  1.00 20.00     0.009 A 
HETATM    7  C13 DSM  3206       0.115  34.423 232.622  1.00 20.00    -0.031 A 
HETATM    8  C5  DSM  3206      -0.300  33.047 232.989  1.00 20.00     0.045 C 
HETATM    9  C6  DSM  3206       0.826  32.138 233.463  1.00 20.00     0.045 C 
HETATM   10  C12 DSM  3206       1.663  32.599 234.699  1.00 20.00    -0.031 A 
HETATM   11  C11 DSM  3206       1.533  33.914 235.381  1.00 20.00     0.041 A 
HETATM   12  C7  DSM  3206       2.615  31.699 235.215  1.00 20.00     0.009 A 
HETATM   13  C8  DSM  3206       3.425  31.992 236.310  1.00 20.00     0.001 A 
HETATM   14  C9  DSM  3206       3.315  33.220 236.966  1.00 20.00     0.002 A 
HETATM   15  C10 DSM  3206       2.379  34.174 236.503  1.00 20.00     0.030 A 
ENDROOT
BRANCH   1  16
HETATM   16  C15 DSM  3206      -0.104  35.757 236.052  1.00 20.00     0.131 C 
BRANCH  16  17
HETATM   17  C16 DSM  3206      -1.449  35.207 236.605  1.00 20.00     0.048 C 
BRANCH  17  18
HETATM   18  C17 DSM  3206      -2.583  35.444 235.651  1.00 20.00     0.233 C 
BRANCH  18  19
HETATM   19  N2  DSM  3206      -2.528  36.784 234.989  1.00 20.00    -0.079 N 
HETATM   20  C18 DSM  3206      -2.919  36.705 233.570  1.00 20.00     0.266 C 
ATOM     21  H22 DSM  3206      -3.089  37.470 235.492  1.00  0.00     0.276 HD
ATOM     22  H21 DSM  3206      -1.611  37.216 235.099  1.00  0.00     0.276 HD
ENDBRANCH  18  19
ENDBRANCH  17  18
ENDBRANCH  16  17
ENDBRANCH   1  16
TORSDOF 4
ENDMDL
MODEL 8
REMARK VINA RESULT:      -5.4     10.555     13.768
REMARK  4 active torsions:
REMARK  status: ('A' for Active; 'I' for Inactive)
REMARK    1  A    between atoms: C17_5  and  N2_2 
REMARK    2  A    between atoms: C16_6  and  C17_5 
REMARK    3  A    between atoms: C15_7  and  C16_6 
REMARK    4  A    between atoms: C15_7  and  N1_8 
ROOT
HETATM    1  N1  DSM  3206      -3.678  42.331 226.690  1.00 20.00    -0.346 N 
HETATM    2  C14 DSM  3206      -4.123  41.018 226.285  1.00 20.00     0.041 A 
HETATM    3  C1  DSM  3206      -4.108  40.578 224.922  1.00 20.00     0.030 A 
HETATM    4  C2  DSM  3206      -4.561  39.270 224.583  1.00 20.00     0.002 A 
HETATM    5  C3  DSM  3206      -4.972  38.395 225.598  1.00 20.00     0.001 A 
HETATM    6  C4  DSM  3206      -4.977  38.826 226.916  1.00 20.00     0.009 A 
HETATM    7  C13 DSM  3206      -4.528  40.116 227.289  1.00 20.00    -0.031 A 
HETATM    8  C5  DSM  3206      -4.559  40.484 228.725  1.00 20.00     0.045 C 
HETATM    9  C6  DSM  3206      -3.194  40.661 229.375  1.00 20.00     0.045 C 
HETATM   10  C12 DSM  3206      -2.225  41.720 228.758  1.00 20.00    -0.031 A 
HETATM   11  C11 DSM  3206      -2.475  42.487 227.509  1.00 20.00     0.041 A 
HETATM   12  C7  DSM  3206      -1.018  41.976 229.437  1.00 20.00     0.009 A 
HETATM   13  C8  DSM  3206      -0.071  42.893 228.988  1.00 20.00     0.001 A 
HETATM   14  C9  DSM  3206      -0.290  43.626 227.820  1.00 20.00     0.002 A 
HETATM   15  C10 DSM  3206      -1.481  43.421 227.085  1.00 20.00     0.030 A 
ENDROOT
BRANCH   1  16
HETATM   16  C15 DSM  3206      -4.276  43.586 226.068  1.00 20.00     0.131 C 
BRANCH  16  17
HETATM   17  C16 DSM  3206      -5.821  43.753 226.120  1.00 20.00     0.048 C 
BRANCH  17  18
HETATM   18  C17 DSM  3206      -6.222  45.195 226.235  1.00 20.00     0.233 C 
BRANCH  18  19
HETATM   19  N2  DSM  3206      -5.081  46.143 226.051  1.00 20.00    -0.079 N 
HETATM   20  C18 DSM  3206      -5.537  47.453 225.554  1.00 20.00     0.266 C 
ATOM     21  H22 DSM  3206      -4.536  46.239 226.908  1.00  0.00     0.276 HD
ATOM     22  H21 DSM  3206      -4.361  45.745 225.448  1.00  0.00     0.276 HD
ENDBRANCH  18  19
ENDBRANCH  17  18
ENDBRANCH  16  17
ENDBRANCH   1  16
TORSDOF 4
ENDMDL
MODEL 9
REMARK VINA RESULT:      -5.4      3.176      6.611
REMARK  4 active torsions:
REMARK  status: ('A' for Active; 'I' for Inactive)
REMARK    1  A    between atoms: C17_5  and  N2_2 
REMARK    2  A    between atoms: C16_6  and  C17_5 
REMARK    3  A    between atoms: C15_7  and  C16_6 
REMARK    4  A    between atoms: C15_7  and  N1_8 
ROOT
HETATM    1  N1  DSM  3206      -0.245  36.847 233.812  1.00 20.00    -0.346 N 
HETATM    2  C14 DSM  3206      -0.165  37.040 232.382  1.00 20.00     0.041 A 
HETATM    3  C1  DSM  3206       0.588  36.178 231.521  1.00 20.00     0.030 A 
HETATM    4  C2  DSM  3206       0.630  36.421 230.118  1.00 20.00     0.002 A 
HETATM    5  C3  DSM  3206      -0.114  37.478 229.576  1.00 20.00     0.001 A 
HETATM    6  C4  DSM  3206      -0.847  38.304 230.415  1.00 20.00     0.009 A 
HETATM    7  C13 DSM  3206      -0.915  38.088 231.813  1.00 20.00    -0.031 A 
HETATM    8  C5  DSM  3206      -1.734  39.017 232.628  1.00 20.00     0.045 C 
HETATM    9  C6  DSM  3206      -2.981  38.403 233.248  1.00 20.00     0.045 C 
HETATM   10  C12 DSM  3206      -2.797  37.172 234.191  1.00 20.00    -0.031 A 
HETATM   11  C11 DSM  3206      -1.511  36.467 234.439  1.00 20.00     0.041 A 
HETATM   12  C7  DSM  3206      -3.934  36.688 234.865  1.00 20.00     0.009 A 
HETATM   13  C8  DSM  3206      -3.901  35.597 235.730  1.00 20.00     0.001 A 
HETATM   14  C9  DSM  3206      -2.703  34.925 235.979  1.00 20.00     0.002 A 
HETATM   15  C10 DSM  3206      -1.518  35.355 235.336  1.00 20.00     0.030 A 
ENDROOT
BRANCH   1  16
HETATM   16  C15 DSM  3206       1.017  36.766 234.661  1.00 20.00     0.131 C 
BRANCH  16  17
HETATM   17  C16 DSM  3206       1.525  38.077 235.325  1.00 20.00     0.048 C 
BRANCH  17  18
HETATM   18  C17 DSM  3206       0.459  38.733 236.153  1.00 20.00     0.233 C 
BRANCH  18  19
HETATM   19  N2  DSM  3206       0.988  39.789 237.069  1.00 20.00    -0.079 N 
HETATM   20  C18 DSM  3206       0.400  39.685 238.416  1.00 20.00     0.266 C 
ATOM     21  H22 DSM  3206       2.007  39.774 237.105  1.00  0.00     0.276 HD
ATOM     22  H21 DSM  3206       0.857  40.722 236.677  1.00  0.00     0.276 HD
ENDBRANCH  18  19
ENDBRANCH  17  18
ENDBRANCH  16  17
ENDBRANCH   1  16
TORSDOF 4
ENDMDL
