MODEL 1
REMARK VINA RESULT:      -6.0      0.000      0.000
REMARK  4 active torsions:
REMARK  status: ('A' for Active; 'I' for Inactive)
REMARK    1  A    between atoms: C3_4  and  N1_9 
REMARK    2  A    between atoms: C8_12  and  N1_9 
REMARK    3  A    between atoms: C13_17  and  C7_11 
REMARK    4  A    between atoms: C13_17  and  C14_18 
ROOT
HETATM    1  C7  DIF  3033       0.496  35.189 234.448  1.00 20.00    -0.003 A 
HETATM    2  C8  DIF  3033       1.025  36.476 234.708  1.00 20.00     0.043 A 
HETATM    3  C9  DIF  3033       1.264  37.349 233.640  1.00 20.00     0.030 A 
HETATM    4  C10 DIF  3033       1.012  36.952 232.325  1.00 20.00     0.002 A 
HETATM    5  C11 DIF  3033       0.527  35.675 232.061  1.00 20.00     0.001 A 
HETATM    6  C12 DIF  3033       0.274  34.802 233.115  1.00 20.00     0.014 A 
ENDROOT
BRANCH   2   7
HETATM    7  N1  DIF  3033       1.237  36.971 236.012  1.00 20.00    -0.353 N 
ATOM      8  H1  DIF  3033       0.358  36.888 236.522  1.00  0.00     0.166 HD
BRANCH   7   9
HETATM    9  C3  DIF  3033       2.226  37.557 236.916  1.00 20.00     0.076 A 
HETATM   10  C2  DIF  3033       2.059  38.795 237.586  1.00 20.00     0.062 A 
HETATM   11  C1  DIF  3033       2.742  39.075 238.791  1.00 20.00     0.026 A 
HETATM   12 CL2  DIF  3033       0.892  39.974 237.149  1.00 20.00    -0.082 Cl
HETATM   13  C6  DIF  3033       3.593  38.133 239.366  1.00 20.00     0.003 A 
HETATM   14  C5  DIF  3033       3.778  36.898 238.745  1.00 20.00     0.026 A 
HETATM   15  C4  DIF  3033       3.115  36.614 237.536  1.00 20.00     0.062 A 
HETATM   16 CL4  DIF  3033       3.412  35.068 236.830  1.00 20.00    -0.082 Cl
ENDBRANCH   7   9
ENDBRANCH   2   7
BRANCH   1  17
HETATM   17  C13 DIF  3033       0.056  34.243 235.517  1.00 20.00     0.098 C 
BRANCH  17  18
HETATM   18  C14 DIF  3033       0.149  33.746 236.913  1.00 20.00     0.199 C 
HETATM   19  O2  DIF  3033      -0.042  34.815 237.711  1.00 20.00    -0.644 OA
HETATM   20  O1  DIF  3033       0.543  32.663 237.337  1.00 20.00    -0.644 OA
ENDBRANCH  17  18
ENDBRANCH   1  17
TORSDOF 4
ENDMDL
MODEL 2
REMARK VINA RESULT:      -5.9      6.471      8.614
REMARK  4 active torsions:
REMARK  status: ('A' for Active; 'I' for Inactive)
REMARK    1  A    between atoms: C3_4  and  N1_9 
REMARK    2  A    between atoms: C8_12  and  N1_9 
REMARK    3  A    between atoms: C13_17  and  C7_11 
REMARK    4  A    between atoms: C13_17  and  C14_18 
ROOT
HETATM    1  C7  DIF  3033      -2.020  41.312 229.298  1.00 20.00    -0.003 A 
HETATM    2  C8  DIF  3033      -2.443  40.126 229.945  1.00 20.00     0.043 A 
HETATM    3  C9  DIF  3033      -3.615  39.491 229.519  1.00 20.00     0.030 A 
HETATM    4  C10 DIF  3033      -4.382  40.031 228.485  1.00 20.00     0.002 A 
HETATM    5  C11 DIF  3033      -3.992  41.217 227.871  1.00 20.00     0.001 A 
HETATM    6  C12 DIF  3033      -2.821  41.851 228.277  1.00 20.00     0.014 A 
ENDROOT
BRANCH   2   7
HETATM    7  N1  DIF  3033      -1.683  39.485 230.946  1.00 20.00    -0.353 N 
ATOM      8  H1  DIF  3033      -1.460  40.178 231.660  1.00  0.00     0.166 HD
BRANCH   7   9
HETATM    9  C3  DIF  3033      -1.090  38.212 231.358  1.00 20.00     0.076 A 
HETATM   10  C2  DIF  3033      -0.207  37.448 230.554  1.00 20.00     0.062 A 
HETATM   11  C1  DIF  3033       0.718  36.549 231.131  1.00 20.00     0.026 A 
HETATM   12 CL2  DIF  3033      -0.012  37.667 228.864  1.00 20.00    -0.082 Cl
HETATM   13  C6  DIF  3033       0.799  36.397 232.515  1.00 20.00     0.003 A 
HETATM   14  C5  DIF  3033      -0.044  37.138 233.342  1.00 20.00     0.026 A 
HETATM   15  C4  DIF  3033      -0.981  38.025 232.777  1.00 20.00     0.062 A 
HETATM   16 CL4  DIF  3033      -1.993  38.890 233.874  1.00 20.00    -0.082 Cl
ENDBRANCH   7   9
ENDBRANCH   2   7
BRANCH   1  17
HETATM   17  C13 DIF  3033      -0.710  41.979 229.563  1.00 20.00     0.098 C 
BRANCH  17  18
HETATM   18  C14 DIF  3033       0.110  43.213 229.658  1.00 20.00     0.199 C 
HETATM   19  O2  DIF  3033       1.379  42.847 229.397  1.00 20.00    -0.644 OA
HETATM   20  O1  DIF  3033      -0.185  44.320 230.101  1.00 20.00    -0.644 OA
ENDBRANCH  17  18
ENDBRANCH   1  17
TORSDOF 4
ENDMDL
MODEL 3
REMARK VINA RESULT:      -5.8      2.848      4.009
REMARK  4 active torsions:
REMARK  status: ('A' for Active; 'I' for Inactive)
REMARK    1  A    between atoms: C3_4  and  N1_9 
REMARK    2  A    between atoms: C8_12  and  N1_9 
REMARK    3  A    between atoms: C13_17  and  C7_11 
REMARK    4  A    between atoms: C13_17  and  C14_18 
ROOT
HETATM    1  C7  DIF  3033       2.478  34.008 236.302  1.00 20.00    -0.003 A 
HETATM    2  C8  DIF  3033       1.339  34.113 235.467  1.00 20.00     0.043 A 
HETATM    3  C9  DIF  3033       1.072  33.102 234.537  1.00 20.00     0.030 A 
HETATM    4  C10 DIF  3033       1.932  32.009 234.406  1.00 20.00     0.002 A 
HETATM    5  C11 DIF  3033       3.073  31.919 235.198  1.00 20.00     0.001 A 
HETATM    6  C12 DIF  3033       3.342  32.912 236.135  1.00 20.00     0.014 A 
ENDROOT
BRANCH   2   7
HETATM    7  N1  DIF  3033       0.389  35.149 235.591  1.00 20.00    -0.353 N 
ATOM      8  H1  DIF  3033      -0.487  34.817 235.190  1.00  0.00     0.166 HD
BRANCH   7   9
HETATM    9  C3  DIF  3033       0.174  36.514 236.072  1.00 20.00     0.076 A 
HETATM   10  C2  DIF  3033      -0.192  36.842 237.401  1.00 20.00     0.062 A 
HETATM   11  C1  DIF  3033       0.105  38.108 237.953  1.00 20.00     0.026 A 
HETATM   12 CL2  DIF  3033      -0.824  35.715 238.530  1.00 20.00    -0.082 Cl
HETATM   13  C6  DIF  3033       0.781  39.072 237.207  1.00 20.00     0.003 A 
HETATM   14  C5  DIF  3033       1.168  38.787 235.898  1.00 20.00     0.026 A 
HETATM   15  C4  DIF  3033       0.864  37.534 235.333  1.00 20.00     0.062 A 
HETATM   16 CL4  DIF  3033       1.368  37.271 233.704  1.00 20.00    -0.082 Cl
ENDBRANCH   7   9
ENDBRANCH   2   7
BRANCH   1  17
HETATM   17  C13 DIF  3033       2.767  34.942 237.430  1.00 20.00     0.098 C 
BRANCH  17  18
HETATM   18  C14 DIF  3033       3.427  36.167 237.949  1.00 20.00     0.199 C 
HETATM   19  O2  DIF  3033       3.884  36.837 236.874  1.00 20.00    -0.644 OA
HETATM   20  O1  DIF  3033       3.737  36.465 239.100  1.00 20.00    -0.644 OA
ENDBRANCH  17  18
ENDBRANCH   1  17
TORSDOF 4
ENDMDL
MODEL 4
REMARK VINA RESULT:      -5.6      2.438      3.833
REMARK  4 active torsions:
REMARK  status: ('A' for Active; 'I' for Inactive)
REMARK    1  A    between atoms: C3_4  and  N1_9 
REMARK    2  A    between atoms: C8_12  and  N1_9 
REMARK    3  A    between atoms: C13_17  and  C7_11 
REMARK    4  A    between atoms: C13_17  and  C14_18 
ROOT
HETATM    1  C7  DIF  3033       1.177  36.825 234.503  1.00 20.00    -0.003 A 
HETATM    2  C8  DIF  3033       0.586  35.545 234.639  1.00 20.00     0.043 A 
HETATM    3  C9  DIF  3033       0.224  34.830 233.493  1.00 20.00     0.030 A 
HETATM    4  C10 DIF  3033       0.412  35.377 232.222  1.00 20.00     0.002 A 
HETATM    5  C11 DIF  3033       0.957  36.650 232.082  1.00 20.00     0.001 A 
HETATM    6  C12 DIF  3033       1.333  37.366 233.215  1.00 20.00     0.014 A 
ENDROOT
BRANCH   2   7
HETATM    7  N1  DIF  3033       0.431  34.900 235.884  1.00 20.00    -0.353 N 
ATOM      8  H1  DIF  3033      -0.499  34.482 235.904  1.00  0.00     0.166 HD
BRANCH   7   9
HETATM    9  C3  DIF  3033       1.085  34.598 237.158  1.00 20.00     0.076 A 
HETATM   10  C2  DIF  3033       2.377  34.025 237.273  1.00 20.00     0.062 A 
HETATM   11  C1  DIF  3033       3.165  34.220 238.430  1.00 20.00     0.026 A 
HETATM   12 CL2  DIF  3033       3.197  33.236 235.990  1.00 20.00    -0.082 Cl
HETATM   13  C6  DIF  3033       2.698  34.995 239.490  1.00 20.00     0.003 A 
HETATM   14  C5  DIF  3033       1.437  35.585 239.413  1.00 20.00     0.026 A 
HETATM   15  C4  DIF  3033       0.637  35.385 238.272  1.00 20.00     0.062 A 
HETATM   16 CL4  DIF  3033      -0.914  36.141 238.266  1.00 20.00    -0.082 Cl
ENDBRANCH   7   9
ENDBRANCH   2   7
BRANCH   1  17
HETATM   17  C13 DIF  3033       1.744  37.602 235.645  1.00 20.00     0.098 C 
BRANCH  17  18
HETATM   18  C14 DIF  3033       2.802  37.796 236.669  1.00 20.00     0.199 C 
HETATM   19  O2  DIF  3033       2.473  38.912 237.348  1.00 20.00    -0.644 OA
HETATM   20  O1  DIF  3033       3.892  37.243 236.788  1.00 20.00    -0.644 OA
ENDBRANCH  17  18
ENDBRANCH   1  17
TORSDOF 4
ENDMDL
MODEL 5
REMARK VINA RESULT:      -5.6      1.239      2.445
REMARK  4 active torsions:
REMARK  status: ('A' for Active; 'I' for Inactive)
REMARK    1  A    between atoms: C3_4  and  N1_9 
REMARK    2  A    between atoms: C8_12  and  N1_9 
REMARK    3  A    between atoms: C13_17  and  C7_11 
REMARK    4  A    between atoms: C13_17  and  C14_18 
ROOT
HETATM    1  C7  DIF  3033      -0.100  35.708 234.837  1.00 20.00    -0.003 A 
HETATM    2  C8  DIF  3033       0.711  36.840 235.097  1.00 20.00     0.043 A 
HETATM    3  C9  DIF  3033       1.333  37.499 234.032  1.00 20.00     0.030 A 
HETATM    4  C10 DIF  3033       1.185  37.036 232.723  1.00 20.00     0.002 A 
HETATM    5  C11 DIF  3033       0.420  35.902 232.464  1.00 20.00     0.001 A 
HETATM    6  C12 DIF  3033      -0.214  35.245 233.515  1.00 20.00     0.014 A 
ENDROOT
BRANCH   2   7
HETATM    7  N1  DIF  3033       0.848  37.406 236.382  1.00 20.00    -0.353 N 
ATOM      8  H1  DIF  3033       0.035  37.998 236.549  1.00  0.00     0.166 HD
BRANCH   7   9
HETATM    9  C3  DIF  3033       1.704  37.474 237.567  1.00 20.00     0.076 A 
HETATM   10  C2  DIF  3033       2.881  36.705 237.744  1.00 20.00     0.062 A 
HETATM   11  C1  DIF  3033       3.920  37.140 238.598  1.00 20.00     0.026 A 
HETATM   12 CL2  DIF  3033       3.270  35.314 236.819  1.00 20.00    -0.082 Cl
HETATM   13  C6  DIF  3033       3.821  38.350 239.284  1.00 20.00     0.003 A 
HETATM   14  C5  DIF  3033       2.684  39.142 239.129  1.00 20.00     0.026 A 
HETATM   15  C4  DIF  3033       1.636  38.711 238.293  1.00 20.00     0.062 A 
HETATM   16 CL4  DIF  3033       0.262  39.746 238.170  1.00 20.00    -0.082 Cl
ENDBRANCH   7   9
ENDBRANCH   2   7
BRANCH   1  17
HETATM   17  C13 DIF  3033      -0.934  35.030 235.874  1.00 20.00     0.098 C 
BRANCH  17  18
HETATM   18  C14 DIF  3033      -1.901  35.105 236.998  1.00 20.00     0.199 C 
HETATM   19  O2  DIF  3033      -1.706  36.300 237.588  1.00 20.00    -0.644 OA
HETATM   20  O1  DIF  3033      -2.597  34.224 237.496  1.00 20.00    -0.644 OA
ENDBRANCH  17  18
ENDBRANCH   1  17
TORSDOF 4
ENDMDL
MODEL 6
REMARK VINA RESULT:      -5.6      2.662      5.557
REMARK  4 active torsions:
REMARK  status: ('A' for Active; 'I' for Inactive)
REMARK    1  A    between atoms: C3_4  and  N1_9 
REMARK    2  A    between atoms: C8_12  and  N1_9 
REMARK    3  A    between atoms: C13_17  and  C7_11 
REMARK    4  A    between atoms: C13_17  and  C14_18 
ROOT
HETATM    1  C7  DIF  3033       2.348  38.194 238.026  1.00 20.00    -0.003 A 
HETATM    2  C8  DIF  3033       2.208  37.001 238.777  1.00 20.00     0.043 A 
HETATM    3  C9  DIF  3033       2.993  36.813 239.921  1.00 20.00     0.030 A 
HETATM    4  C10 DIF  3033       3.929  37.774 240.309  1.00 20.00     0.002 A 
HETATM    5  C11 DIF  3033       4.098  38.931 239.554  1.00 20.00     0.001 A 
HETATM    6  C12 DIF  3033       3.314  39.135 238.422  1.00 20.00     0.014 A 
ENDROOT
BRANCH   2   7
HETATM    7  N1  DIF  3033       1.236  36.021 238.488  1.00 20.00    -0.353 N 
ATOM      8  H1  DIF  3033       0.837  35.707 239.372  1.00  0.00     0.166 HD
BRANCH   7   9
HETATM    9  C3  DIF  3033       0.578  35.279 237.411  1.00 20.00     0.076 A 
HETATM   10  C2  DIF  3033      -0.782  35.444 237.047  1.00 20.00     0.062 A 
HETATM   11  C1  DIF  3033      -1.235  35.133 235.745  1.00 20.00     0.026 A 
HETATM   12 CL2  DIF  3033      -1.956  36.212 238.033  1.00 20.00    -0.082 Cl
HETATM   13  C6  DIF  3033      -0.351  34.664 234.774  1.00 20.00     0.003 A 
HETATM   14  C5  DIF  3033       0.997  34.498 235.088  1.00 20.00     0.026 A 
HETATM   15  C4  DIF  3033       1.457  34.790 236.386  1.00 20.00     0.062 A 
HETATM   16 CL4  DIF  3033       3.137  34.543 236.692  1.00 20.00    -0.082 Cl
ENDBRANCH   7   9
ENDBRANCH   2   7
BRANCH   1  17
HETATM   17  C13 DIF  3033       1.455  38.566 236.889  1.00 20.00     0.098 C 
BRANCH  17  18
HETATM   18  C14 DIF  3033       0.969  38.334 235.505  1.00 20.00     0.199 C 
HETATM   19  O2  DIF  3033       2.063  38.297 234.720  1.00 20.00    -0.644 OA
HETATM   20  O1  DIF  3033      -0.172  38.388 235.054  1.00 20.00    -0.644 OA
ENDBRANCH  17  18
ENDBRANCH   1  17
TORSDOF 4
ENDMDL
MODEL 7
REMARK VINA RESULT:      -5.5      3.334      4.907
REMARK  4 active torsions:
REMARK  status: ('A' for Active; 'I' for Inactive)
REMARK    1  A    between atoms: C3_4  and  N1_9 
REMARK    2  A    between atoms: C8_12  and  N1_9 
REMARK    3  A    between atoms: C13_17  and  C7_11 
REMARK    4  A    between atoms: C13_17  and  C14_18 
ROOT
HETATM    1  C7  DIF  3033       2.389  36.751 236.493  1.00 20.00    -0.003 A 
HETATM    2  C8  DIF  3033       1.831  35.482 236.202  1.00 20.00     0.043 A 
HETATM    3  C9  DIF  3033       1.080  35.314 235.033  1.00 20.00     0.030 A 
HETATM    4  C10 DIF  3033       0.854  36.388 234.171  1.00 20.00     0.002 A 
HETATM    5  C11 DIF  3033       1.367  37.646 234.470  1.00 20.00     0.001 A 
HETATM    6  C12 DIF  3033       2.127  37.823 235.624  1.00 20.00     0.014 A 
ENDROOT
BRANCH   2   7
HETATM    7  N1  DIF  3033       2.077  34.337 236.987  1.00 20.00    -0.353 N 
ATOM      8  H1  DIF  3033       1.178  33.989 237.320  1.00  0.00     0.166 HD
BRANCH   7   9
HETATM    9  C3  DIF  3033       3.121  33.454 237.510  1.00 20.00     0.076 A 
HETATM   10  C2  DIF  3033       3.452  33.338 238.883  1.00 20.00     0.062 A 
HETATM   11  C1  DIF  3033       4.054  32.167 239.397  1.00 20.00     0.026 A 
HETATM   12 CL2  DIF  3033       2.988  34.473 240.083  1.00 20.00    -0.082 Cl
HETATM   13  C6  DIF  3033       4.329  31.082 238.566  1.00 20.00     0.003 A 
HETATM   14  C5  DIF  3033       4.009  31.151 237.211  1.00 20.00     0.026 A 
HETATM   15  C4  DIF  3033       3.424  32.318 236.685  1.00 20.00     0.062 A 
HETATM   16 CL4  DIF  3033       3.074  32.322 234.996  1.00 20.00    -0.082 Cl
ENDBRANCH   7   9
ENDBRANCH   2   7
BRANCH   1  17
HETATM   17  C13 DIF  3033       3.334  37.000 237.622  1.00 20.00     0.098 C 
BRANCH  17  18
HETATM   18  C14 DIF  3033       3.824  37.870 238.721  1.00 20.00     0.199 C 
HETATM   19  O2  DIF  3033       3.634  39.140 238.315  1.00 20.00    -0.644 OA
HETATM   20  O1  DIF  3033       4.486  37.582 239.715  1.00 20.00    -0.644 OA
ENDBRANCH  17  18
ENDBRANCH   1  17
TORSDOF 4
ENDMDL
MODEL 8
REMARK VINA RESULT:      -5.4      6.389      8.342
REMARK  4 active torsions:
REMARK  status: ('A' for Active; 'I' for Inactive)
REMARK    1  A    between atoms: C3_4  and  N1_9 
REMARK    2  A    between atoms: C8_12  and  N1_9 
REMARK    3  A    between atoms: C13_17  and  C7_11 
REMARK    4  A    between atoms: C13_17  and  C14_18 
ROOT
HETATM    1  C7  DIF  3033      -2.709  40.353 229.317  1.00 20.00    -0.003 A 
HETATM    2  C8  DIF  3033      -2.979  38.964 229.383  1.00 20.00     0.043 A 
HETATM    3  C9  DIF  3033      -4.165  38.468 228.829  1.00 20.00     0.030 A 
HETATM    4  C10 DIF  3033      -5.093  39.330 228.242  1.00 20.00     0.002 A 
HETATM    5  C11 DIF  3033      -4.851  40.700 228.208  1.00 20.00     0.001 A 
HETATM    6  C12 DIF  3033      -3.669  41.204 228.744  1.00 20.00     0.014 A 
ENDROOT
BRANCH   2   7
HETATM    7  N1  DIF  3033      -2.059  38.026 229.895  1.00 20.00    -0.353 N 
ATOM      8  H1  DIF  3033      -2.254  37.126 229.456  1.00  0.00     0.166 HD
BRANCH   7   9
HETATM    9  C3  DIF  3033      -0.934  37.842 230.812  1.00 20.00     0.076 A 
HETATM   10  C2  DIF  3033      -0.982  38.128 232.200  1.00 20.00     0.062 A 
HETATM   11  C1  DIF  3033      -0.115  37.485 233.112  1.00 20.00     0.026 A 
HETATM   12 CL2  DIF  3033      -2.192  39.091 232.941  1.00 20.00    -0.082 Cl
HETATM   13  C6  DIF  3033       0.808  36.537 232.673  1.00 20.00     0.003 A 
HETATM   14  C5  DIF  3033       0.881  36.218 231.318  1.00 20.00     0.026 A 
HETATM   15  C4  DIF  3033       0.033  36.864 230.398  1.00 20.00     0.062 A 
HETATM   16 CL4  DIF  3033       0.200  36.419 228.739  1.00 20.00    -0.082 Cl
ENDBRANCH   7   9
ENDBRANCH   2   7
BRANCH   1  17
HETATM   17  C13 DIF  3033      -1.410  40.964 229.730  1.00 20.00     0.098 C 
BRANCH  17  18
HETATM   18  C14 DIF  3033      -0.266  41.865 229.446  1.00 20.00     0.199 C 
HETATM   19  O2  DIF  3033      -0.513  43.013 230.106  1.00 20.00    -0.644 OA
HETATM   20  O1  DIF  3033       0.634  41.756 228.617  1.00 20.00    -0.644 OA
ENDBRANCH  17  18
ENDBRANCH   1  17
TORSDOF 4
ENDMDL
MODEL 9
REMARK VINA RESULT:      -5.3      2.375      5.082
REMARK  4 active torsions:
REMARK  status: ('A' for Active; 'I' for Inactive)
REMARK    1  A    between atoms: C3_4  and  N1_9 
REMARK    2  A    between atoms: C8_12  and  N1_9 
REMARK    3  A    between atoms: C13_17  and  C7_11 
REMARK    4  A    between atoms: C13_17  and  C14_18 
ROOT
HETATM    1  C7  DIF  3033       3.051  36.558 237.373  1.00 20.00    -0.003 A 
HETATM    2  C8  DIF  3033       2.197  37.410 236.631  1.00 20.00     0.043 A 
HETATM    3  C9  DIF  3033       2.127  38.769 236.960  1.00 20.00     0.030 A 
HETATM    4  C10 DIF  3033       2.867  39.282 238.028  1.00 20.00     0.002 A 
HETATM    5  C11 DIF  3033       3.678  38.443 238.785  1.00 20.00     0.001 A 
HETATM    6  C12 DIF  3033       3.766  37.092 238.459  1.00 20.00     0.014 A 
ENDROOT
BRANCH   2   7
HETATM    7  N1  DIF  3033       1.477  36.978 235.498  1.00 20.00    -0.353 N 
ATOM      8  H1  DIF  3033       2.137  36.891 234.725  1.00  0.00     0.166 HD
BRANCH   7   9
HETATM    9  C3  DIF  3033       0.153  36.606 235.000  1.00 20.00     0.076 A 
HETATM   10  C2  DIF  3033      -1.006  36.514 235.811  1.00 20.00     0.062 A 
HETATM   11  C1  DIF  3033      -2.299  36.666 235.263  1.00 20.00     0.026 A 
HETATM   12 CL2  DIF  3033      -0.976  36.424 237.524  1.00 20.00    -0.082 Cl
HETATM   13  C6  DIF  3033      -2.474  36.925 233.904  1.00 20.00     0.003 A 
HETATM   14  C5  DIF  3033      -1.360  37.034 233.073  1.00 20.00     0.026 A 
HETATM   15  C4  DIF  3033      -0.067  36.869 233.605  1.00 20.00     0.062 A 
HETATM   16 CL4  DIF  3033       1.253  37.006 232.503  1.00 20.00    -0.082 Cl
ENDBRANCH   7   9
ENDBRANCH   2   7
BRANCH   1  17
HETATM   17  C13 DIF  3033       3.322  35.135 237.008  1.00 20.00     0.098 C 
BRANCH  17  18
HETATM   18  C14 DIF  3033       2.895  33.870 236.359  1.00 20.00     0.199 C 
HETATM   19  O2  DIF  3033       1.550  33.847 236.419  1.00 20.00    -0.644 OA
HETATM   20  O1  DIF  3033       3.563  32.895 236.025  1.00 20.00    -0.644 OA
ENDBRANCH  17  18
ENDBRANCH   1  17
TORSDOF 4
ENDMDL
