MODEL 1
REMARK VINA RESULT:      -6.8      0.000      0.000
REMARK  8 active torsions:
REMARK  status: ('A' for Active; 'I' for Inactive)
REMARK    1  A    between atoms: C1_1  and  O4_24 
REMARK    2  A    between atoms: C10_13  and  C8_11 
REMARK    3  A    between atoms: C10_13  and  C11_14 
REMARK    4  A    between atoms: C11_14  and  C12_15 
REMARK    5  A    between atoms: C14_17  and  O3_18 
REMARK    6  A    between atoms: C23_25  and  O4_24 
REMARK    7  A    between atoms: C16_27  and  C23_25 
REMARK    8  A    between atoms: C16_27  and  C17_29 
ROOT
HETATM    1  C1  803  1161      -0.295  34.170 235.119  1.00 20.00     0.141 C 
HETATM    2  C2  803  1161      -1.403  33.384 234.377  1.00 20.00     0.041 C 
HETATM    3  C3  803  1161      -0.839  32.596 233.170  1.00 20.00     0.007 C 
HETATM    4  C21 803  1161      -0.915  33.426 231.871  1.00 20.00     0.014 C 
HETATM    5  C4  803  1161       0.582  32.120 233.365  1.00 20.00    -0.015 C 
HETATM    6  C24 803  1161       1.308  32.369 234.461  1.00 20.00    -0.055 C 
HETATM    7  C5  803  1161       2.685  31.868 234.563  1.00 20.00     0.004 C 
HETATM    8  C6  803  1161       3.454  32.122 235.628  1.00 20.00    -0.022 C 
HETATM    9  C7  803  1161       2.987  32.942 236.799  1.00 20.00     0.009 C 
HETATM   10  C20 803  1161       2.492  32.090 237.984  1.00 20.00     0.014 C 
HETATM   11  C8  803  1161       1.892  33.903 236.305  1.00 20.00     0.004 C 
HETATM   12  C9  803  1161       0.746  33.150 235.611  1.00 20.00     0.052 C 
ENDROOT
BRANCH  11  13
HETATM   13  C10 803  1161       1.324  34.721 237.469  1.00 20.00     0.009 C 
BRANCH  13  14
HETATM   14  C11 803  1161       2.314  35.840 237.833  1.00 20.00     0.033 C 
BRANCH  14  15
HETATM   15  C12 803  1161       1.541  36.818 238.722  1.00 20.00     0.134 C 
HETATM   16  O1  803  1161       2.525  37.462 239.553  1.00 20.00    -0.316 OA
HETATM   17  C22 803  1161       2.971  38.655 239.152  1.00 20.00     0.261 C 
HETATM   18  C15 803  1161       2.427  39.262 237.891  1.00 20.00     0.142 C 
HETATM   19  O2  803  1161       3.817  39.248 239.806  1.00 20.00    -0.265 OA
HETATM   20  C14 803  1161       0.899  39.165 237.973  1.00 20.00     0.130 C 
HETATM   21  C13 803  1161       0.600  37.668 237.840  1.00 20.00     0.065 C 
BRANCH  20  22
HETATM   22  O3  803  1161       0.390  39.659 239.215  1.00 20.00    -0.395 OA
ATOM     23  H3  803  1161       0.129  38.935 239.772  1.00  0.00     0.210 HD
ENDBRANCH  20  22
ENDBRANCH  14  15
ENDBRANCH  13  14
ENDBRANCH  11  13
BRANCH   1  24
HETATM   24  O4  803  1161       0.350  35.087 234.222  1.00 20.00    -0.315 OA
BRANCH  24  25
HETATM   25  C23 803  1161      -0.136  36.326 234.335  1.00 20.00     0.263 C 
HETATM   26  O5  803  1161      -1.129  36.595 234.995  1.00 20.00    -0.265 OA
BRANCH  25  27
HETATM   27  C16 803  1161       0.651  37.361 233.579  1.00 20.00     0.081 C 
HETATM   28  C19 803  1161       1.845  37.837 234.426  1.00 20.00     0.020 C 
BRANCH  27  29
HETATM   29  C17 803  1161       1.142  36.783 232.244  1.00 20.00     0.010 C 
HETATM   30  C18 803  1161       0.082  37.096 231.170  1.00 20.00     0.006 C 
ENDBRANCH  27  29
ENDBRANCH  25  27
ENDBRANCH  24  25
ENDBRANCH   1  24
TORSDOF 8
ENDMDL
MODEL 2
REMARK VINA RESULT:      -6.4      2.312      6.505
REMARK  8 active torsions:
REMARK  status: ('A' for Active; 'I' for Inactive)
REMARK    1  A    between atoms: C1_1  and  O4_24 
REMARK    2  A    between atoms: C10_13  and  C8_11 
REMARK    3  A    between atoms: C10_13  and  C11_14 
REMARK    4  A    between atoms: C11_14  and  C12_15 
REMARK    5  A    between atoms: C14_17  and  O3_18 
REMARK    6  A    between atoms: C23_25  and  O4_24 
REMARK    7  A    between atoms: C16_27  and  C23_25 
REMARK    8  A    between atoms: C16_27  and  C17_29 
ROOT
HETATM    1  C1  803  1161       1.270  35.323 238.081  1.00 20.00     0.141 C 
HETATM    2  C2  803  1161       0.921  34.669 239.440  1.00 20.00     0.041 C 
HETATM    3  C3  803  1161       2.087  34.787 240.452  1.00 20.00     0.007 C 
HETATM    4  C21 803  1161       3.015  33.556 240.388  1.00 20.00     0.014 C 
HETATM    5  C4  803  1161       2.918  36.037 240.277  1.00 20.00    -0.015 C 
HETATM    6  C24 803  1161       2.697  36.953 239.327  1.00 20.00    -0.055 C 
HETATM    7  C5  803  1161       3.559  38.138 239.230  1.00 20.00     0.004 C 
HETATM    8  C6  803  1161       3.392  39.061 238.276  1.00 20.00    -0.022 C 
HETATM    9  C7  803  1161       2.324  38.963 237.222  1.00 20.00     0.009 C 
HETATM   10  C20 803  1161       1.066  39.793 237.547  1.00 20.00     0.014 C 
HETATM   11  C8  803  1161       1.979  37.478 237.024  1.00 20.00     0.004 C 
HETATM   12  C9  803  1161       1.572  36.807 238.346  1.00 20.00     0.052 C 
ENDROOT
BRANCH  11  13
HETATM   13  C10 803  1161       0.843  37.316 236.009  1.00 20.00     0.009 C 
BRANCH  13  14
HETATM   14  C11 803  1161       1.384  37.588 234.595  1.00 20.00     0.033 C 
BRANCH  14  15
HETATM   15  C12 803  1161       0.733  36.544 233.684  1.00 20.00     0.134 C 
HETATM   16  O1  803  1161      -0.644  36.462 234.094  1.00 20.00    -0.316 OA
HETATM   17  C22 803  1161      -1.530  37.179 233.397  1.00 20.00     0.261 C 
HETATM   18  C15 803  1161      -1.061  38.005 232.234  1.00 20.00     0.142 C 
HETATM   19  O2  803  1161      -2.713  37.163 233.704  1.00 20.00    -0.265 OA
HETATM   20  C14 803  1161      -0.177  37.096 231.370  1.00 20.00     0.130 C 
HETATM   21  C13 803  1161       1.081  36.868 232.214  1.00 20.00     0.065 C 
BRANCH  20  22
HETATM   22  O3  803  1161      -0.806  35.845 231.079  1.00 20.00    -0.395 OA
ATOM     23  H3  803  1161      -1.729  35.884 231.304  1.00  0.00     0.210 HD
ENDBRANCH  20  22
ENDBRANCH  14  15
ENDBRANCH  13  14
ENDBRANCH  11  13
BRANCH   1  24
HETATM   24  O4  803  1161       2.441  34.710 237.520  1.00 20.00    -0.315 OA
BRANCH  24  25
HETATM   25  C23 803  1161       2.140  33.864 236.532  1.00 20.00     0.263 C 
HETATM   26  O5  803  1161       1.052  33.849 235.974  1.00 20.00    -0.265 OA
BRANCH  25  27
HETATM   27  C16 803  1161       3.261  32.931 236.165  1.00 20.00     0.081 C 
HETATM   28  C19 803  1161       3.675  32.098 237.392  1.00 20.00     0.020 C 
BRANCH  27  29
HETATM   29  C17 803  1161       2.830  32.009 235.016  1.00 20.00     0.010 C 
HETATM   30  C18 803  1161       2.351  30.679 235.626  1.00 20.00     0.006 C 
ENDBRANCH  27  29
ENDBRANCH  25  27
ENDBRANCH  24  25
ENDBRANCH   1  24
TORSDOF 8
ENDMDL
MODEL 3
REMARK VINA RESULT:      -6.3      2.211      6.410
REMARK  8 active torsions:
REMARK  status: ('A' for Active; 'I' for Inactive)
REMARK    1  A    between atoms: C1_1  and  O4_24 
REMARK    2  A    between atoms: C10_13  and  C8_11 
REMARK    3  A    between atoms: C10_13  and  C11_14 
REMARK    4  A    between atoms: C11_14  and  C12_15 
REMARK    5  A    between atoms: C14_17  and  O3_18 
REMARK    6  A    between atoms: C23_25  and  O4_24 
REMARK    7  A    between atoms: C16_27  and  C23_25 
REMARK    8  A    between atoms: C16_27  and  C17_29 
ROOT
HETATM    1  C1  803  1161       2.300  36.318 236.282  1.00 20.00     0.141 C 
HETATM    2  C2  803  1161       3.431  35.731 237.162  1.00 20.00     0.041 C 
HETATM    3  C3  803  1161       2.869  34.951 238.375  1.00 20.00     0.007 C 
HETATM    4  C21 803  1161       2.728  35.862 239.613  1.00 20.00     0.014 C 
HETATM    5  C4  803  1161       1.542  34.281 238.105  1.00 20.00    -0.015 C 
HETATM    6  C24 803  1161       0.887  34.365 236.941  1.00 20.00    -0.055 C 
HETATM    7  C5  803  1161      -0.402  33.682 236.770  1.00 20.00     0.004 C 
HETATM    8  C6  803  1161      -1.103  33.766 235.633  1.00 20.00    -0.022 C 
HETATM    9  C7  803  1161      -0.644  34.568 234.447  1.00 20.00     0.009 C 
HETATM   10  C20 803  1161       0.054  33.718 233.367  1.00 20.00     0.014 C 
HETATM   11  C8  803  1161       0.274  35.693 234.953  1.00 20.00     0.004 C 
HETATM   12  C9  803  1161       1.442  35.142 235.786  1.00 20.00     0.052 C 
ENDROOT
BRANCH  11  13
HETATM   13  C10 803  1161       0.832  36.506 233.781  1.00 20.00     0.009 C 
BRANCH  13  14
HETATM   14  C11 803  1161      -0.141  37.650 233.448  1.00 20.00     0.033 C 
BRANCH  14  15
HETATM   15  C12 803  1161      -0.949  37.180 232.235  1.00 20.00     0.134 C 
HETATM   16  O1  803  1161      -2.314  37.554 232.497  1.00 20.00    -0.316 OA
HETATM   17  C22 803  1161      -2.745  38.698 231.958  1.00 20.00     0.261 C 
HETATM   18  C15 803  1161      -1.812  39.513 231.110  1.00 20.00     0.142 C 
HETATM   19  O2  803  1161      -3.890  39.078 232.155  1.00 20.00    -0.265 OA
HETATM   20  C14 803  1161      -1.172  38.551 230.100  1.00 20.00     0.130 C 
HETATM   21  C13 803  1161      -0.251  37.663 230.944  1.00 20.00     0.065 C 
BRANCH  20  22
HETATM   22  O3  803  1161      -2.145  37.747 229.426  1.00 20.00    -0.395 OA
ATOM     23  H3  803  1161      -1.846  37.542 228.547  1.00  0.00     0.210 HD
ENDBRANCH  20  22
ENDBRANCH  14  15
ENDBRANCH  13  14
ENDBRANCH  11  13
BRANCH   1  24
HETATM   24  O4  803  1161       1.470  37.194 237.059  1.00 20.00    -0.315 OA
BRANCH  24  25
HETATM   25  C23 803  1161       1.703  38.481 236.784  1.00 20.00     0.263 C 
HETATM   26  O5  803  1161       2.033  38.877 235.675  1.00 20.00    -0.265 OA
BRANCH  25  27
HETATM   27  C16 803  1161       1.520  39.399 237.961  1.00 20.00     0.081 C 
HETATM   28  C19 803  1161       0.034  39.450 238.362  1.00 20.00     0.020 C 
BRANCH  27  29
HETATM   29  C17 803  1161       2.375  38.921 239.144  1.00 20.00     0.010 C 
HETATM   30  C18 803  1161       3.854  39.176 238.797  1.00 20.00     0.006 C 
ENDBRANCH  27  29
ENDBRANCH  25  27
ENDBRANCH  24  25
ENDBRANCH   1  24
TORSDOF 8
ENDMDL
MODEL 4
REMARK VINA RESULT:      -6.3      2.540      6.219
REMARK  8 active torsions:
REMARK  status: ('A' for Active; 'I' for Inactive)
REMARK    1  A    between atoms: C1_1  and  O4_24 
REMARK    2  A    between atoms: C10_13  and  C8_11 
REMARK    3  A    between atoms: C10_13  and  C11_14 
REMARK    4  A    between atoms: C11_14  and  C12_15 
REMARK    5  A    between atoms: C14_17  and  O3_18 
REMARK    6  A    between atoms: C23_25  and  O4_24 
REMARK    7  A    between atoms: C16_27  and  C23_25 
REMARK    8  A    between atoms: C16_27  and  C17_29 
ROOT
HETATM    1  C1  803  1161       0.365  36.079 236.787  1.00 20.00     0.141 C 
HETATM    2  C2  803  1161      -0.424  37.274 237.375  1.00 20.00     0.041 C 
HETATM    3  C3  803  1161      -0.086  38.599 236.651  1.00 20.00     0.007 C 
HETATM    4  C21 803  1161       1.068  39.345 237.354  1.00 20.00     0.014 C 
HETATM    5  C4  803  1161       0.262  38.422 235.191  1.00 20.00    -0.015 C 
HETATM    6  C24 803  1161       0.303  37.236 234.572  1.00 20.00    -0.055 C 
HETATM    7  C5  803  1161       0.654  37.159 233.149  1.00 20.00     0.004 C 
HETATM    8  C6  803  1161       0.737  35.991 232.501  1.00 20.00    -0.022 C 
HETATM    9  C7  803  1161       0.491  34.667 233.169  1.00 20.00     0.009 C 
HETATM   10  C20 803  1161      -0.933  34.122 232.940  1.00 20.00     0.014 C 
HETATM   11  C8  803  1161       0.798  34.820 234.668  1.00 20.00     0.004 C 
HETATM   12  C9  803  1161      -0.011  35.964 235.300  1.00 20.00     0.052 C 
ENDROOT
BRANCH  11  13
HETATM   13  C10 803  1161       0.499  33.518 235.418  1.00 20.00     0.009 C 
BRANCH  13  14
HETATM   14  C11 803  1161       1.568  32.471 235.064  1.00 20.00     0.033 C 
BRANCH  14  15
HETATM   15  C12 803  1161       1.419  31.348 236.093  1.00 20.00     0.134 C 
HETATM   16  O1  803  1161       2.646  30.595 236.040  1.00 20.00    -0.316 OA
HETATM   17  C22 803  1161       3.580  30.890 236.948  1.00 20.00     0.261 C 
HETATM   18  C15 803  1161       3.307  31.958 237.969  1.00 20.00     0.142 C 
HETATM   19  O2  803  1161       4.649  30.297 236.948  1.00 20.00    -0.265 OA
HETATM   20  C14 803  1161       1.927  31.658 238.569  1.00 20.00     0.130 C 
HETATM   21  C13 803  1161       0.941  31.949 237.433  1.00 20.00     0.065 C 
BRANCH  20  22
HETATM   22  O3  803  1161       1.803  30.296 238.990  1.00 20.00    -0.395 OA
ATOM     23  H3  803  1161       1.489  29.760 238.270  1.00  0.00     0.210 HD
ENDBRANCH  20  22
ENDBRANCH  14  15
ENDBRANCH  13  14
ENDBRANCH  11  13
BRANCH   1  24
HETATM   24  O4  803  1161       1.777  36.318 236.885  1.00 20.00    -0.315 OA
BRANCH  24  25
HETATM   25  C23 803  1161       2.270  35.936 238.066  1.00 20.00     0.263 C 
HETATM   26  O5  803  1161       1.736  35.092 238.770  1.00 20.00    -0.265 OA
BRANCH  25  27
HETATM   27  C16 803  1161       3.544  36.637 238.450  1.00 20.00     0.081 C 
HETATM   28  C19 803  1161       4.030  37.520 237.286  1.00 20.00     0.020 C 
BRANCH  27  29
HETATM   29  C17 803  1161       3.323  37.488 239.709  1.00 20.00     0.010 C 
HETATM   30  C18 803  1161       4.000  38.853 239.486  1.00 20.00     0.006 C 
ENDBRANCH  27  29
ENDBRANCH  25  27
ENDBRANCH  24  25
ENDBRANCH   1  24
TORSDOF 8
ENDMDL
MODEL 5
REMARK VINA RESULT:      -6.2      1.738      4.331
REMARK  8 active torsions:
REMARK  status: ('A' for Active; 'I' for Inactive)
REMARK    1  A    between atoms: C1_1  and  O4_24 
REMARK    2  A    between atoms: C10_13  and  C8_11 
REMARK    3  A    between atoms: C10_13  and  C11_14 
REMARK    4  A    between atoms: C11_14  and  C12_15 
REMARK    5  A    between atoms: C14_17  and  O3_18 
REMARK    6  A    between atoms: C23_25  and  O4_24 
REMARK    7  A    between atoms: C16_27  and  C23_25 
REMARK    8  A    between atoms: C16_27  and  C17_29 
ROOT
HETATM    1  C1  803  1161       1.454  33.335 235.111  1.00 20.00     0.141 C 
HETATM    2  C2  803  1161       2.161  32.015 234.714  1.00 20.00     0.041 C 
HETATM    3  C3  803  1161       1.235  31.095 233.881  1.00 20.00     0.007 C 
HETATM    4  C21 803  1161       0.462  30.111 234.784  1.00 20.00     0.014 C 
HETATM    5  C4  803  1161       0.249  31.848 233.017  1.00 20.00    -0.015 C 
HETATM    6  C24 803  1161       0.154  33.182 232.982  1.00 20.00    -0.055 C 
HETATM    7  C5  803  1161      -0.837  33.827 232.112  1.00 20.00     0.004 C 
HETATM    8  C6  803  1161      -0.986  35.156 232.071  1.00 20.00    -0.022 C 
HETATM    9  C7  803  1161      -0.167  36.097 232.911  1.00 20.00     0.009 C 
HETATM   10  C20 803  1161       1.030  36.708 232.154  1.00 20.00     0.014 C 
HETATM   11  C8  803  1161       0.294  35.341 234.168  1.00 20.00     0.004 C 
HETATM   12  C9  803  1161       1.050  34.052 233.812  1.00 20.00     0.052 C 
ENDROOT
BRANCH  11  13
HETATM   13  C10 803  1161       1.195  36.228 235.034  1.00 20.00     0.009 C 
BRANCH  13  14
HETATM   14  C11 803  1161       0.408  37.475 235.472  1.00 20.00     0.033 C 
BRANCH  14  15
HETATM   15  C12 803  1161       1.448  38.473 235.988  1.00 20.00     0.134 C 
HETATM   16  O1  803  1161       0.733  39.389 236.838  1.00 20.00    -0.316 OA
HETATM   17  C22 803  1161       0.760  39.147 238.152  1.00 20.00     0.261 C 
HETATM   18  C15 803  1161       1.532  37.967 238.670  1.00 20.00     0.142 C 
HETATM   19  O2  803  1161       0.161  39.880 238.925  1.00 20.00    -0.265 OA
HETATM   20  C14 803  1161       2.920  38.021 238.017  1.00 20.00     0.130 C 
HETATM   21  C13 803  1161       2.664  37.697 236.541  1.00 20.00     0.065 C 
BRANCH  20  22
HETATM   22  O3  803  1161       3.526  39.311 238.138  1.00 20.00    -0.395 OA
ATOM     23  H3  803  1161       2.946  39.978 237.790  1.00  0.00     0.210 HD
ENDBRANCH  20  22
ENDBRANCH  14  15
ENDBRANCH  13  14
ENDBRANCH  11  13
BRANCH   1  24
HETATM   24  O4  803  1161       0.268  33.055 235.868  1.00 20.00    -0.315 OA
BRANCH  24  25
HETATM   25  C23 803  1161       0.512  32.995 237.180  1.00 20.00     0.263 C 
HETATM   26  O5  803  1161       0.509  31.949 237.813  1.00 20.00    -0.265 OA
BRANCH  25  27
HETATM   27  C16 803  1161       0.795  34.332 237.809  1.00 20.00     0.081 C 
HETATM   28  C19 803  1161      -0.469  34.860 238.512  1.00 20.00     0.020 C 
BRANCH  27  29
HETATM   29  C17 803  1161       1.952  34.213 238.811  1.00 20.00     0.010 C 
HETATM   30  C18 803  1161       3.273  34.281 238.023  1.00 20.00     0.006 C 
ENDBRANCH  27  29
ENDBRANCH  25  27
ENDBRANCH  24  25
ENDBRANCH   1  24
TORSDOF 8
ENDMDL
MODEL 6
REMARK VINA RESULT:      -6.2      2.382      6.139
REMARK  8 active torsions:
REMARK  status: ('A' for Active; 'I' for Inactive)
REMARK    1  A    between atoms: C1_1  and  O4_24 
REMARK    2  A    between atoms: C10_13  and  C8_11 
REMARK    3  A    between atoms: C10_13  and  C11_14 
REMARK    4  A    between atoms: C11_14  and  C12_15 
REMARK    5  A    between atoms: C14_17  and  O3_18 
REMARK    6  A    between atoms: C23_25  and  O4_24 
REMARK    7  A    between atoms: C16_27  and  C23_25 
REMARK    8  A    between atoms: C16_27  and  C17_29 
ROOT
HETATM    1  C1  803  1161       1.752  36.412 236.270  1.00 20.00     0.141 C 
HETATM    2  C2  803  1161       3.203  36.111 236.716  1.00 20.00     0.041 C 
HETATM    3  C3  803  1161       3.340  34.686 237.305  1.00 20.00     0.007 C 
HETATM    4  C21 803  1161       3.142  34.688 238.836  1.00 20.00     0.014 C 
HETATM    5  C4  803  1161       2.394  33.681 236.689  1.00 20.00    -0.015 C 
HETATM    6  C24 803  1161       1.499  33.982 235.741  1.00 20.00    -0.055 C 
HETATM    7  C5  803  1161       0.617  32.939 235.202  1.00 20.00     0.004 C 
HETATM    8  C6  803  1161      -0.312  33.205 234.277  1.00 20.00    -0.022 C 
HETATM    9  C7  803  1161      -0.541  34.583 233.720  1.00 20.00     0.009 C 
HETATM   10  C20 803  1161       0.158  34.820 232.366  1.00 20.00     0.014 C 
HETATM   11  C8  803  1161      -0.085  35.608 234.772  1.00 20.00     0.004 C 
HETATM   12  C9  803  1161       1.373  35.374 235.199  1.00 20.00     0.052 C 
ENDROOT
BRANCH  11  13
HETATM   13  C10 803  1161      -0.228  37.036 234.236  1.00 20.00     0.009 C 
BRANCH  13  14
HETATM   14  C11 803  1161      -1.715  37.427 234.228  1.00 20.00     0.033 C 
BRANCH  14  15
HETATM   15  C12 803  1161      -1.830  38.637 233.296  1.00 20.00     0.134 C 
HETATM   16  O1  803  1161      -0.827  38.452 232.280  1.00 20.00    -0.316 OA
HETATM   17  C22 803  1161      -1.224  37.910 231.125  1.00 20.00     0.261 C 
HETATM   18  C15 803  1161      -2.668  37.541 230.940  1.00 20.00     0.142 C 
HETATM   19  O2  803  1161      -0.417  37.714 230.228  1.00 20.00    -0.265 OA
HETATM   20  C14 803  1161      -3.497  38.757 231.374  1.00 20.00     0.130 C 
HETATM   21  C13 803  1161      -3.309  38.828 232.893  1.00 20.00     0.065 C 
BRANCH  20  22
HETATM   22  O3  803  1161      -3.043  39.969 230.766  1.00 20.00    -0.395 OA
ATOM     23  H3  803  1161      -3.731  40.341 230.226  1.00  0.00     0.210 HD
ENDBRANCH  20  22
ENDBRANCH  14  15
ENDBRANCH  13  14
ENDBRANCH  11  13
BRANCH   1  24
HETATM   24  O4  803  1161       0.852  36.275 237.379  1.00 20.00    -0.315 OA
BRANCH  24  25
HETATM   25  C23 803  1161       0.361  37.453 237.775  1.00 20.00     0.263 C 
HETATM   26  O5  803  1161      -0.800  37.609 238.123  1.00 20.00    -0.265 OA
BRANCH  25  27
HETATM   27  C16 803  1161       1.369  38.569 237.759  1.00 20.00     0.081 C 
HETATM   28  C19 803  1161       0.669  39.905 237.446  1.00 20.00     0.020 C 
BRANCH  27  29
HETATM   29  C17 803  1161       2.093  38.650 239.110  1.00 20.00     0.010 C 
HETATM   30  C18 803  1161       3.550  39.075 238.845  1.00 20.00     0.006 C 
ENDBRANCH  27  29
ENDBRANCH  25  27
ENDBRANCH  24  25
ENDBRANCH   1  24
TORSDOF 8
ENDMDL
MODEL 7
REMARK VINA RESULT:      -6.2      3.022      7.072
REMARK  8 active torsions:
REMARK  status: ('A' for Active; 'I' for Inactive)
REMARK    1  A    between atoms: C1_1  and  O4_24 
REMARK    2  A    between atoms: C10_13  and  C8_11 
REMARK    3  A    between atoms: C10_13  and  C11_14 
REMARK    4  A    between atoms: C11_14  and  C12_15 
REMARK    5  A    between atoms: C14_17  and  O3_18 
REMARK    6  A    between atoms: C23_25  and  O4_24 
REMARK    7  A    between atoms: C16_27  and  C23_25 
REMARK    8  A    between atoms: C16_27  and  C17_29 
ROOT
HETATM    1  C1  803  1161       0.286  36.385 235.755  1.00 20.00     0.141 C 
HETATM    2  C2  803  1161       1.052  35.298 236.548  1.00 20.00     0.041 C 
HETATM    3  C3  803  1161       0.459  35.092 237.962  1.00 20.00     0.007 C 
HETATM    4  C21 803  1161       1.165  35.985 239.004  1.00 20.00     0.014 C 
HETATM    5  C4  803  1161      -1.031  35.335 238.037  1.00 20.00    -0.015 C 
HETATM    6  C24 803  1161      -1.778  35.717 236.995  1.00 20.00    -0.055 C 
HETATM    7  C5  803  1161      -3.221  35.932 237.163  1.00 20.00     0.004 C 
HETATM    8  C6  803  1161      -3.998  36.344 236.154  1.00 20.00    -0.022 C 
HETATM    9  C7  803  1161      -3.467  36.631 234.777  1.00 20.00     0.009 C 
HETATM   10  C20 803  1161      -3.663  35.462 233.790  1.00 20.00     0.014 C 
HETATM   11  C8  803  1161      -1.982  37.012 234.904  1.00 20.00     0.004 C 
HETATM   12  C9  803  1161      -1.178  35.927 235.638  1.00 20.00     0.052 C 
ENDROOT
BRANCH  11  13
HETATM   13  C10 803  1161      -1.363  37.249 233.523  1.00 20.00     0.009 C 
BRANCH  13  14
HETATM   14  C11 803  1161      -1.594  38.712 233.108  1.00 20.00     0.033 C 
BRANCH  14  15
HETATM   15  C12 803  1161      -2.431  38.662 231.827  1.00 20.00     0.134 C 
HETATM   16  O1  803  1161      -2.107  39.859 231.095  1.00 20.00    -0.316 OA
HETATM   17  C22 803  1161      -1.185  39.753 230.134  1.00 20.00     0.261 C 
HETATM   18  C15 803  1161      -0.555  38.418 229.858  1.00 20.00     0.142 C 
HETATM   19  O2  803  1161      -0.856  40.736 229.485  1.00 20.00    -0.265 OA
HETATM   20  C14 803  1161      -1.699  37.402 229.738  1.00 20.00     0.130 C 
HETATM   21  C13 803  1161      -2.255  37.279 231.161  1.00 20.00     0.065 C 
BRANCH  20  22
HETATM   22  O3  803  1161      -2.726  37.844 228.846  1.00 20.00    -0.395 OA
ATOM     23  H3  803  1161      -2.421  38.591 228.343  1.00  0.00     0.210 HD
ENDBRANCH  20  22
ENDBRANCH  14  15
ENDBRANCH  13  14
ENDBRANCH  11  13
BRANCH   1  24
HETATM   24  O4  803  1161       0.320  37.633 236.463  1.00 20.00    -0.315 OA
BRANCH  24  25
HETATM   25  C23 803  1161       1.317  38.419 236.047  1.00 20.00     0.263 C 
HETATM   26  O5  803  1161       1.695  38.458 234.886  1.00 20.00    -0.265 OA
BRANCH  25  27
HETATM   27  C16 803  1161       1.930  39.254 237.137  1.00 20.00     0.081 C 
HETATM   28  C19 803  1161       0.920  39.447 238.284  1.00 20.00     0.020 C 
BRANCH  27  29
HETATM   29  C17 803  1161       3.210  38.587 237.661  1.00 20.00     0.010 C 
HETATM   30  C18 803  1161       3.424  39.044 239.116  1.00 20.00     0.006 C 
ENDBRANCH  27  29
ENDBRANCH  25  27
ENDBRANCH  24  25
ENDBRANCH   1  24
TORSDOF 8
ENDMDL
MODEL 8
REMARK VINA RESULT:      -6.1      2.364      6.369
REMARK  8 active torsions:
REMARK  status: ('A' for Active; 'I' for Inactive)
REMARK    1  A    between atoms: C1_1  and  O4_24 
REMARK    2  A    between atoms: C10_13  and  C8_11 
REMARK    3  A    between atoms: C10_13  and  C11_14 
REMARK    4  A    between atoms: C11_14  and  C12_15 
REMARK    5  A    between atoms: C14_17  and  O3_18 
REMARK    6  A    between atoms: C23_25  and  O4_24 
REMARK    7  A    between atoms: C16_27  and  C23_25 
REMARK    8  A    between atoms: C16_27  and  C17_29 
ROOT
HETATM    1  C1  803  1161       0.581  35.231 238.172  1.00 20.00     0.141 C 
HETATM    2  C2  803  1161       0.338  34.755 239.625  1.00 20.00     0.041 C 
HETATM    3  C3  803  1161       1.654  34.700 240.439  1.00 20.00     0.007 C 
HETATM    4  C21 803  1161       2.304  33.302 240.362  1.00 20.00     0.014 C 
HETATM    5  C4  803  1161       2.670  35.737 240.022  1.00 20.00    -0.015 C 
HETATM    6  C24 803  1161       2.478  36.613 239.029  1.00 20.00    -0.055 C 
HETATM    7  C5  803  1161       3.525  37.586 238.691  1.00 20.00     0.004 C 
HETATM    8  C6  803  1161       3.386  38.457 237.685  1.00 20.00    -0.022 C 
HETATM    9  C7  803  1161       2.162  38.510 236.813  1.00 20.00     0.009 C 
HETATM   10  C20 803  1161       1.157  39.601 237.236  1.00 20.00     0.014 C 
HETATM   11  C8  803  1161       1.509  37.118 236.816  1.00 20.00     0.004 C 
HETATM   12  C9  803  1161       1.202  36.636 238.243  1.00 20.00     0.052 C 
ENDROOT
BRANCH  11  13
HETATM   13  C10 803  1161       0.214  37.125 235.998  1.00 20.00     0.009 C 
BRANCH  13  14
HETATM   14  C11 803  1161       0.506  36.603 234.581  1.00 20.00     0.033 C 
BRANCH  14  15
HETATM   15  C12 803  1161       0.188  37.760 233.630  1.00 20.00     0.134 C 
HETATM   16  O1  803  1161       0.058  37.174 232.321  1.00 20.00    -0.316 OA
HETATM   17  C22 803  1161      -1.179  36.891 231.902  1.00 20.00     0.261 C 
HETATM   18  C15 803  1161      -2.350  37.206 232.788  1.00 20.00     0.142 C 
HETATM   19  O2  803  1161      -1.356  36.379 230.806  1.00 20.00    -0.265 OA
HETATM   20  C14 803  1161      -2.170  38.652 233.267  1.00 20.00     0.130 C 
HETATM   21  C13 803  1161      -0.970  38.596 234.218  1.00 20.00     0.065 C 
BRANCH  20  22
HETATM   22  O3  803  1161      -1.900  39.551 232.188  1.00 20.00    -0.395 OA
ATOM     23  H3  803  1161      -2.442  39.332 231.438  1.00  0.00     0.210 HD
ENDBRANCH  20  22
ENDBRANCH  14  15
ENDBRANCH  13  14
ENDBRANCH  11  13
BRANCH   1  24
HETATM   24  O4  803  1161       1.504  34.354 237.510  1.00 20.00    -0.315 OA
BRANCH  24  25
HETATM   25  C23 803  1161       0.889  33.525 236.662  1.00 20.00     0.263 C 
HETATM   26  O5  803  1161      -0.310  33.580 236.426  1.00 20.00    -0.265 OA
BRANCH  25  27
HETATM   27  C16 803  1161       1.804  32.520 236.020  1.00 20.00     0.081 C 
HETATM   28  C19 803  1161       1.573  32.494 234.498  1.00 20.00     0.020 C 
BRANCH  27  29
HETATM   29  C17 803  1161       3.269  32.861 236.330  1.00 20.00     0.010 C 
HETATM   30  C18 803  1161       3.860  31.709 237.165  1.00 20.00     0.006 C 
ENDBRANCH  27  29
ENDBRANCH  25  27
ENDBRANCH  24  25
ENDBRANCH   1  24
TORSDOF 8
ENDMDL
MODEL 9
REMARK VINA RESULT:      -6.0      2.062      6.843
REMARK  8 active torsions:
REMARK  status: ('A' for Active; 'I' for Inactive)
REMARK    1  A    between atoms: C1_1  and  O4_24 
REMARK    2  A    between atoms: C10_13  and  C8_11 
REMARK    3  A    between atoms: C10_13  and  C11_14 
REMARK    4  A    between atoms: C11_14  and  C12_15 
REMARK    5  A    between atoms: C14_17  and  O3_18 
REMARK    6  A    between atoms: C23_25  and  O4_24 
REMARK    7  A    between atoms: C16_27  and  C23_25 
REMARK    8  A    between atoms: C16_27  and  C17_29 
ROOT
HETATM    1  C1  803  1161      -0.135  36.612 237.118  1.00 20.00     0.141 C 
HETATM    2  C2  803  1161      -0.358  37.933 237.894  1.00 20.00     0.041 C 
HETATM    3  C3  803  1161       0.754  38.969 237.596  1.00 20.00     0.007 C 
HETATM    4  C21 803  1161       1.908  38.864 238.615  1.00 20.00     0.014 C 
HETATM    5  C4  803  1161       1.322  38.866 236.199  1.00 20.00    -0.015 C 
HETATM    6  C24 803  1161       0.931  37.955 235.300  1.00 20.00    -0.055 C 
HETATM    7  C5  803  1161       1.541  37.928 233.965  1.00 20.00     0.004 C 
HETATM    8  C6  803  1161       1.201  37.015 233.048  1.00 20.00    -0.022 C 
HETATM    9  C7  803  1161       0.181  35.940 233.304  1.00 20.00     0.009 C 
HETATM   10  C20 803  1161      -1.219  36.282 232.756  1.00 20.00     0.014 C 
HETATM   11  C8  803  1161       0.139  35.668 234.817  1.00 20.00     0.004 C 
HETATM   12  C9  803  1161      -0.136  36.951 235.618  1.00 20.00     0.052 C 
ENDROOT
BRANCH  11  13
HETATM   13  C10 803  1161      -0.934  34.627 235.151  1.00 20.00     0.009 C 
BRANCH  13  14
HETATM   14  C11 803  1161      -0.256  33.282 235.464  1.00 20.00     0.033 C 
BRANCH  14  15
HETATM   15  C12 803  1161       0.400  32.824 234.159  1.00 20.00     0.134 C 
HETATM   16  O1  803  1161       1.821  32.911 234.377  1.00 20.00    -0.316 OA
HETATM   17  C22 803  1161       2.452  31.789 234.732  1.00 20.00     0.261 C 
HETATM   18  C15 803  1161       1.670  30.514 234.869  1.00 20.00     0.142 C 
HETATM   19  O2  803  1161       3.655  31.800 234.945  1.00 20.00    -0.265 OA
HETATM   20  C14 803  1161       0.818  30.375 233.600  1.00 20.00     0.130 C 
HETATM   21  C13 803  1161      -0.231  31.485 233.717  1.00 20.00     0.065 C 
BRANCH  20  22
HETATM   22  O3  803  1161       1.589  30.551 232.408  1.00 20.00    -0.395 OA
ATOM     23  H3  803  1161       2.266  31.203 232.551  1.00  0.00     0.210 HD
ENDBRANCH  20  22
ENDBRANCH  14  15
ENDBRANCH  13  14
ENDBRANCH  11  13
BRANCH   1  24
HETATM   24  O4  803  1161       1.138  36.043 237.459  1.00 20.00    -0.315 OA
BRANCH  24  25
HETATM   25  C23 803  1161       1.016  34.997 238.280  1.00 20.00     0.263 C 
HETATM   26  O5  803  1161      -0.002  34.761 238.914  1.00 20.00    -0.265 OA
BRANCH  25  27
HETATM   27  C16 803  1161       2.245  34.132 238.351  1.00 20.00     0.081 C 
HETATM   28  C19 803  1161       3.296  34.628 237.342  1.00 20.00     0.020 C 
BRANCH  27  29
HETATM   29  C17 803  1161       2.823  34.148 239.774  1.00 20.00     0.010 C 
HETATM   30  C18 803  1161       3.054  35.616 240.178  1.00 20.00     0.006 C 
ENDBRANCH  27  29
ENDBRANCH  25  27
ENDBRANCH  24  25
ENDBRANCH   1  24
TORSDOF 8
ENDMDL
