MODEL 1
REMARK VINA RESULT:      -7.1      0.000      0.000
REMARK  8 active torsions:
REMARK  status: ('A' for Active; 'I' for Inactive)
REMARK    1  A    between atoms: C3_5  and  O_1 
REMARK    2  A    between atoms: C7_8  and  C8_9 
REMARK    3  A    between atoms: C8_9  and  C9_10 
REMARK    4  A    between atoms: C17_19  and  C20_22 
REMARK    5  A    between atoms: C20_22  and  C22_24 
REMARK    6  A    between atoms: C22_24  and  C23_25 
REMARK    7  A    between atoms: C23_25  and  C24_26 
REMARK    8  A    between atoms: C24_26  and  C25_27 
ROOT
HETATM    1  C9  VD3  7616       0.442  34.423 235.592  1.00 20.00     0.013 C 
HETATM    2  C10 VD3  7616       0.634  32.902 235.061  1.00 20.00     0.009 C 
HETATM    3  C11 VD3  7616       0.630  32.696 233.589  1.00 20.00     0.001 C 
HETATM    4  C12 VD3  7616      -0.153  33.728 232.688  1.00 20.00     0.010 C 
HETATM    5  C13 VD3  7616      -0.016  35.200 233.101  1.00 20.00    -0.036 C 
HETATM    6  C14 VD3  7616       0.907  35.378 234.367  1.00 20.00     0.002 C 
HETATM    7  C15 VD3  7616       0.837  36.977 234.554  1.00 20.00     0.006 C 
HETATM    8  C16 VD3  7616       0.697  37.580 233.038  1.00 20.00     0.006 C 
HETATM    9  C17 VD3  7616       0.751  36.291 232.135  1.00 20.00    -0.002 C 
HETATM   10  C18 VD3  7616      -1.546  35.606 233.354  1.00 20.00     0.016 C 
ENDROOT
BRANCH   1  11
HETATM   11  C8  VD3  7616       1.086  34.120 236.798  1.00 20.00    -0.021 C 
BRANCH  11  12
HETATM   12  C7  VD3  7616       1.753  35.149 237.692  1.00 20.00     0.004 C 
HETATM   13  C5  VD3  7616       1.914  36.500 237.836  1.00 20.00    -0.051 C 
HETATM   14  C4  VD3  7616       0.763  37.393 238.514  1.00 20.00     0.070 C 
HETATM   15  C6  VD3  7616       3.135  37.342 237.392  1.00 20.00    -0.061 C 
HETATM   16  C3  VD3  7616       0.515  38.773 237.849  1.00 20.00     0.122 C 
HETATM   17  C2  VD3  7616       1.898  39.478 237.465  1.00 20.00     0.036 C 
HETATM   18  C1  VD3  7616       3.145  38.801 237.898  1.00 20.00     0.041 C 
HETATM   19  C19 VD3  7616       4.086  36.901 236.672  1.00 20.00     0.019 C 
BRANCH  16  20
HETATM   20  O   VD3  7616      -0.206  39.625 238.760  1.00 20.00    -0.395 OA
ATOM     21  HO  VD3  7616      -1.008  39.188 239.020  1.00  0.00     0.210 HD
ENDBRANCH  16  20
ENDBRANCH  11  12
ENDBRANCH   1  11
BRANCH   9  22
HETATM   22  C20 VD3  7616      -0.010  36.426 230.669  1.00 20.00    -0.014 C 
HETATM   23  C21 VD3  7616       0.899  35.827 229.620  1.00 20.00     0.010 C 
BRANCH  22  24
HETATM   24  C22 VD3  7616      -0.311  37.828 230.020  1.00 20.00     0.005 C 
BRANCH  24  25
HETATM   25  C23 VD3  7616      -1.891  38.249 230.429  1.00 20.00     0.001 C 
BRANCH  25  26
HETATM   26  C24 VD3  7616      -1.638  39.733 230.784  1.00 20.00     0.004 C 
BRANCH  26  27
HETATM   27  C25 VD3  7616      -1.275  40.785 229.709  1.00 20.00    -0.023 C 
HETATM   28  C26 VD3  7616      -2.609  40.796 229.236  1.00 20.00     0.009 C 
HETATM   29  C27 VD3  7616      -1.258  42.225 229.776  1.00 20.00     0.009 C 
ENDBRANCH  26  27
ENDBRANCH  25  26
ENDBRANCH  24  25
ENDBRANCH  22  24
ENDBRANCH   9  22
TORSDOF 8
ENDMDL
MODEL 2
REMARK VINA RESULT:      -7.1      1.793      2.230
REMARK  8 active torsions:
REMARK  status: ('A' for Active; 'I' for Inactive)
REMARK    1  A    between atoms: C3_5  and  O_1 
REMARK    2  A    between atoms: C7_8  and  C8_9 
REMARK    3  A    between atoms: C8_9  and  C9_10 
REMARK    4  A    between atoms: C17_19  and  C20_22 
REMARK    5  A    between atoms: C20_22  and  C22_24 
REMARK    6  A    between atoms: C22_24  and  C23_25 
REMARK    7  A    between atoms: C23_25  and  C24_26 
REMARK    8  A    between atoms: C24_26  and  C25_27 
ROOT
HETATM    1  C9  VD3  7616       0.520  34.885 234.952  1.00 20.00     0.013 C 
HETATM    2  C10 VD3  7616       0.693  33.275 234.855  1.00 20.00     0.009 C 
HETATM    3  C11 VD3  7616       0.585  32.665 233.504  1.00 20.00     0.001 C 
HETATM    4  C12 VD3  7616      -0.275  33.410 232.411  1.00 20.00     0.010 C 
HETATM    5  C13 VD3  7616      -0.129  34.938 232.384  1.00 20.00    -0.036 C 
HETATM    6  C14 VD3  7616       0.882  35.455 233.478  1.00 20.00     0.002 C 
HETATM    7  C15 VD3  7616       0.804  37.044 233.215  1.00 20.00     0.006 C 
HETATM    8  C16 VD3  7616       0.547  37.199 231.607  1.00 20.00     0.006 C 
HETATM    9  C17 VD3  7616       0.552  35.709 231.098  1.00 20.00    -0.002 C 
HETATM   10  C18 VD3  7616      -1.641  35.410 232.625  1.00 20.00     0.016 C 
ENDROOT
BRANCH   1  11
HETATM   11  C8  VD3  7616       1.253  34.927 236.144  1.00 20.00    -0.021 C 
BRANCH  11  12
HETATM   12  C7  VD3  7616       2.361  35.924 236.431  1.00 20.00     0.004 C 
HETATM   13  C5  VD3  7616       2.781  36.815 237.381  1.00 20.00    -0.051 C 
HETATM   14  C4  VD3  7616       3.585  36.310 238.676  1.00 20.00     0.070 C 
HETATM   15  C6  VD3  7616       2.560  38.348 237.379  1.00 20.00    -0.061 C 
HETATM   16  C3  VD3  7616       3.205  37.009 240.008  1.00 20.00     0.122 C 
HETATM   17  C2  VD3  7616       3.021  38.583 239.794  1.00 20.00     0.036 C 
HETATM   18  C1  VD3  7616       3.351  39.125 238.453  1.00 20.00     0.041 C 
HETATM   19  C19 VD3  7616       1.799  38.961 236.565  1.00 20.00     0.019 C 
BRANCH  16  20
HETATM   20  O   VD3  7616       4.244  36.790 240.982  1.00 20.00    -0.395 OA
ATOM     21  HO  VD3  7616       4.497  35.875 240.962  1.00  0.00     0.210 HD
ENDBRANCH  16  20
ENDBRANCH  11  12
ENDBRANCH   1  11
BRANCH   9  22
HETATM   22  C20 VD3  7616      -0.315  35.434 229.712  1.00 20.00    -0.014 C 
HETATM   23  C21 VD3  7616       0.564  34.650 228.766  1.00 20.00     0.010 C 
BRANCH  22  24
HETATM   24  C22 VD3  7616      -0.767  36.613 228.773  1.00 20.00     0.005 C 
BRANCH  24  25
HETATM   25  C23 VD3  7616      -2.358  37.000 229.174  1.00 20.00     0.001 C 
BRANCH  25  26
HETATM   26  C24 VD3  7616      -2.128  38.473 229.587  1.00 20.00     0.004 C 
BRANCH  26  27
HETATM   27  C25 VD3  7616      -2.809  39.095 230.829  1.00 20.00    -0.023 C 
HETATM   28  C26 VD3  7616      -3.677  37.982 230.938  1.00 20.00     0.009 C 
HETATM   29  C27 VD3  7616      -2.469  39.003 232.228  1.00 20.00     0.009 C 
ENDBRANCH  26  27
ENDBRANCH  25  26
ENDBRANCH  24  25
ENDBRANCH  22  24
ENDBRANCH   9  22
TORSDOF 8
ENDMDL
MODEL 3
REMARK VINA RESULT:      -6.9      2.959      8.366
REMARK  8 active torsions:
REMARK  status: ('A' for Active; 'I' for Inactive)
REMARK    1  A    between atoms: C3_5  and  O_1 
REMARK    2  A    between atoms: C7_8  and  C8_9 
REMARK    3  A    between atoms: C8_9  and  C9_10 
REMARK    4  A    between atoms: C17_19  and  C20_22 
REMARK    5  A    between atoms: C20_22  and  C22_24 
REMARK    6  A    between atoms: C22_24  and  C23_25 
REMARK    7  A    between atoms: C23_25  and  C24_26 
REMARK    8  A    between atoms: C24_26  and  C25_27 
ROOT
HETATM    1  C9  VD3  7616      -0.897  38.434 230.945  1.00 20.00     0.013 C 
HETATM    2  C10 VD3  7616      -0.408  37.722 229.573  1.00 20.00     0.009 C 
HETATM    3  C11 VD3  7616       0.188  36.365 229.692  1.00 20.00     0.001 C 
HETATM    4  C12 VD3  7616       0.882  35.966 231.051  1.00 20.00     0.010 C 
HETATM    5  C13 VD3  7616       0.161  36.433 232.323  1.00 20.00    -0.036 C 
HETATM    6  C14 VD3  7616      -1.162  37.227 231.996  1.00 20.00     0.002 C 
HETATM    7  C15 VD3  7616      -1.660  37.586 233.486  1.00 20.00     0.006 C 
HETATM    8  C16 VD3  7616      -1.179  36.326 234.413  1.00 20.00     0.006 C 
HETATM    9  C17 VD3  7616      -0.505  35.354 233.373  1.00 20.00    -0.002 C 
HETATM   10  C18 VD3  7616       1.293  37.323 233.027  1.00 20.00     0.016 C 
ENDROOT
BRANCH   1  11
HETATM   11  C8  VD3  7616      -1.804  39.238 230.245  1.00 20.00    -0.021 C 
BRANCH  11  12
HETATM   12  C7  VD3  7616      -1.610  40.722 229.990  1.00 20.00     0.004 C 
HETATM   13  C5  VD3  7616      -1.584  41.641 228.977  1.00 20.00    -0.051 C 
HETATM   14  C4  VD3  7616      -2.951  42.227 228.369  1.00 20.00     0.070 C 
HETATM   15  C6  VD3  7616      -0.328  42.222 228.282  1.00 20.00    -0.061 C 
HETATM   16  C3  VD3  7616      -2.969  42.408 226.828  1.00 20.00     0.122 C 
HETATM   17  C2  VD3  7616      -1.584  43.017 226.310  1.00 20.00     0.036 C 
HETATM   18  C1  VD3  7616      -0.594  43.416 227.340  1.00 20.00     0.041 C 
HETATM   19  C19 VD3  7616       0.854  41.785 228.454  1.00 20.00     0.019 C 
BRANCH  16  20
HETATM   20  O   VD3  7616      -4.038  43.302 226.460  1.00 20.00    -0.395 OA
ATOM     21  HO  VD3  7616      -3.683  44.000 225.923  1.00  0.00     0.210 HD
ENDBRANCH  16  20
ENDBRANCH  11  12
ENDBRANCH   1  11
BRANCH   9  22
HETATM   22  C20 VD3  7616       0.650  34.343 233.999  1.00 20.00    -0.014 C 
HETATM   23  C21 VD3  7616       0.454  32.979 233.378  1.00 20.00     0.010 C 
BRANCH  22  24
HETATM   24  C22 VD3  7616       0.674  33.962 235.526  1.00 20.00     0.005 C 
BRANCH  24  25
HETATM   25  C23 VD3  7616       2.236  34.242 236.095  1.00 20.00     0.001 C 
BRANCH  25  26
HETATM   26  C24 VD3  7616       2.049  35.715 236.531  1.00 20.00     0.004 C 
BRANCH  26  27
HETATM   27  C25 VD3  7616       3.251  36.656 236.784  1.00 20.00    -0.023 C 
HETATM   28  C26 VD3  7616       2.459  37.787 236.471  1.00 20.00     0.009 C 
HETATM   29  C27 VD3  7616       3.712  37.280 237.999  1.00 20.00     0.009 C 
ENDBRANCH  26  27
ENDBRANCH  25  26
ENDBRANCH  24  25
ENDBRANCH  22  24
ENDBRANCH   9  22
TORSDOF 8
ENDMDL
MODEL 4
REMARK VINA RESULT:      -6.9      2.406      8.029
REMARK  8 active torsions:
REMARK  status: ('A' for Active; 'I' for Inactive)
REMARK    1  A    between atoms: C3_5  and  O_1 
REMARK    2  A    between atoms: C7_8  and  C8_9 
REMARK    3  A    between atoms: C8_9  and  C9_10 
REMARK    4  A    between atoms: C17_19  and  C20_22 
REMARK    5  A    between atoms: C20_22  and  C22_24 
REMARK    6  A    between atoms: C22_24  and  C23_25 
REMARK    7  A    between atoms: C23_25  and  C24_26 
REMARK    8  A    between atoms: C24_26  and  C25_27 
ROOT
HETATM    1  C9  VD3  7616      -1.155  38.189 232.292  1.00 20.00     0.013 C 
HETATM    2  C10 VD3  7616      -0.424  37.523 231.006  1.00 20.00     0.009 C 
HETATM    3  C11 VD3  7616       0.567  36.448 231.275  1.00 20.00     0.001 C 
HETATM    4  C12 VD3  7616       1.313  36.445 232.666  1.00 20.00     0.010 C 
HETATM    5  C13 VD3  7616       0.443  36.796 233.882  1.00 20.00    -0.036 C 
HETATM    6  C14 VD3  7616      -1.053  37.085 233.476  1.00 20.00     0.002 C 
HETATM    7  C15 VD3  7616      -1.682  37.429 234.919  1.00 20.00     0.006 C 
HETATM    8  C16 VD3  7616      -0.854  36.499 235.980  1.00 20.00     0.006 C 
HETATM    9  C17 VD3  7616       0.124  35.684 235.054  1.00 20.00    -0.002 C 
HETATM   10  C18 VD3  7616       1.212  38.073 234.470  1.00 20.00     0.016 C 
ENDROOT
BRANCH   1  11
HETATM   11  C8  VD3  7616      -2.249  38.580 231.511  1.00 20.00    -0.021 C 
BRANCH  11  12
HETATM   12  C7  VD3  7616      -2.142  39.108 230.093  1.00 20.00     0.004 C 
HETATM   13  C5  VD3  7616      -1.887  40.256 229.393  1.00 20.00    -0.051 C 
HETATM   14  C4  VD3  7616      -0.377  40.752 229.158  1.00 20.00     0.070 C 
HETATM   15  C6  VD3  7616      -2.931  41.213 228.766  1.00 20.00    -0.061 C 
HETATM   16  C3  VD3  7616      -0.154  42.282 229.280  1.00 20.00     0.122 C 
HETATM   17  C2  VD3  7616      -1.338  43.090 228.572  1.00 20.00     0.036 C 
HETATM   18  C1  VD3  7616      -2.349  42.296 227.832  1.00 20.00     0.041 C 
HETATM   19  C19 VD3  7616      -4.184  41.139 228.971  1.00 20.00     0.019 C 
BRANCH  16  20
HETATM   20  O   VD3  7616       1.094  42.640 228.654  1.00 20.00    -0.395 OA
ATOM     21  HO  VD3  7616       1.808  42.270 229.159  1.00  0.00     0.210 HD
ENDBRANCH  16  20
ENDBRANCH  11  12
ENDBRANCH   1  11
BRANCH   9  22
HETATM   22  C20 VD3  7616       1.521  35.170 235.782  1.00 20.00    -0.014 C 
HETATM   23  C21 VD3  7616       1.507  33.658 235.792  1.00 20.00     0.010 C 
BRANCH  22  24
HETATM   24  C22 VD3  7616       1.819  35.464 237.299  1.00 20.00     0.005 C 
BRANCH  24  25
HETATM   25  C23 VD3  7616       3.449  35.870 237.428  1.00 20.00     0.001 C 
BRANCH  25  26
HETATM   26  C24 VD3  7616       3.308  37.402 237.261  1.00 20.00     0.004 C 
BRANCH  26  27
HETATM   27  C25 VD3  7616       2.387  38.247 238.173  1.00 20.00    -0.023 C 
HETATM   28  C26 VD3  7616       3.470  39.086 238.527  1.00 20.00     0.009 C 
HETATM   29  C27 VD3  7616       1.563  39.391 237.870  1.00 20.00     0.009 C 
ENDBRANCH  26  27
ENDBRANCH  25  26
ENDBRANCH  24  25
ENDBRANCH  22  24
ENDBRANCH   9  22
TORSDOF 8
ENDMDL
MODEL 5
REMARK VINA RESULT:      -6.7      2.377      7.516
REMARK  8 active torsions:
REMARK  status: ('A' for Active; 'I' for Inactive)
REMARK    1  A    between atoms: C3_5  and  O_1 
REMARK    2  A    between atoms: C7_8  and  C8_9 
REMARK    3  A    between atoms: C8_9  and  C9_10 
REMARK    4  A    between atoms: C17_19  and  C20_22 
REMARK    5  A    between atoms: C20_22  and  C22_24 
REMARK    6  A    between atoms: C22_24  and  C23_25 
REMARK    7  A    between atoms: C23_25  and  C24_26 
REMARK    8  A    between atoms: C24_26  and  C25_27 
ROOT
HETATM    1  C9  VD3  7616       0.549  34.935 233.916  1.00 20.00     0.013 C 
HETATM    2  C10 VD3  7616      -0.573  34.072 234.707  1.00 20.00     0.009 C 
HETATM    3  C11 VD3  7616      -0.923  34.517 236.081  1.00 20.00     0.001 C 
HETATM    4  C12 VD3  7616       0.159  35.309 236.912  1.00 20.00     0.010 C 
HETATM    5  C13 VD3  7616       0.973  36.342 236.121  1.00 20.00    -0.036 C 
HETATM    6  C14 VD3  7616       0.541  36.403 234.605  1.00 20.00     0.002 C 
HETATM    7  C15 VD3  7616       1.558  37.527 234.059  1.00 20.00     0.006 C 
HETATM    8  C16 VD3  7616       1.780  38.551 235.317  1.00 20.00     0.006 C 
HETATM    9  C17 VD3  7616       0.844  37.954 236.434  1.00 20.00    -0.002 C 
HETATM   10  C18 VD3  7616       2.469  35.813 236.346  1.00 20.00     0.016 C 
ENDROOT
BRANCH   1  11
HETATM   11  C8  VD3  7616       0.051  34.514 232.678  1.00 20.00    -0.021 C 
BRANCH  11  12
HETATM   12  C7  VD3  7616      -1.143  35.139 231.980  1.00 20.00     0.004 C 
HETATM   13  C5  VD3  7616      -1.959  36.237 232.028  1.00 20.00    -0.051 C 
HETATM   14  C4  VD3  7616      -1.489  37.633 231.387  1.00 20.00     0.070 C 
HETATM   15  C6  VD3  7616      -3.365  36.322 232.672  1.00 20.00    -0.061 C 
HETATM   16  C3  VD3  7616      -1.858  38.898 232.207  1.00 20.00     0.122 C 
HETATM   17  C2  VD3  7616      -3.344  38.789 232.785  1.00 20.00     0.036 C 
HETATM   18  C1  VD3  7616      -4.149  37.616 232.364  1.00 20.00     0.041 C 
HETATM   19  C19 VD3  7616      -3.877  35.412 233.397  1.00 20.00     0.019 C 
BRANCH  16  20
HETATM   20  O   VD3  7616      -1.770  40.063 231.363  1.00 20.00    -0.395 OA
ATOM     21  HO  VD3  7616      -1.451  39.800 230.508  1.00  0.00     0.210 HD
ENDBRANCH  16  20
ENDBRANCH  11  12
ENDBRANCH   1  11
BRANCH   9  22
HETATM   22  C20 VD3  7616       1.297  38.296 237.991  1.00 20.00    -0.014 C 
HETATM   23  C21 VD3  7616       0.392  39.392 238.504  1.00 20.00     0.010 C 
BRANCH  22  24
HETATM   24  C22 VD3  7616       2.708  38.908 238.325  1.00 20.00     0.005 C 
BRANCH  24  25
HETATM   25  C23 VD3  7616       3.684  37.655 238.890  1.00 20.00     0.001 C 
BRANCH  25  26
HETATM   26  C24 VD3  7616       2.629  36.931 239.759  1.00 20.00     0.004 C 
BRANCH  26  27
HETATM   27  C25 VD3  7616       2.821  35.473 240.241  1.00 20.00    -0.023 C 
HETATM   28  C26 VD3  7616       1.420  35.273 240.267  1.00 20.00     0.009 C 
HETATM   29  C27 VD3  7616       3.009  34.256 239.490  1.00 20.00     0.009 C 
ENDBRANCH  26  27
ENDBRANCH  25  26
ENDBRANCH  24  25
ENDBRANCH  22  24
ENDBRANCH   9  22
TORSDOF 8
ENDMDL
MODEL 6
REMARK VINA RESULT:      -6.5      1.845      3.457
REMARK  8 active torsions:
REMARK  status: ('A' for Active; 'I' for Inactive)
REMARK    1  A    between atoms: C3_5  and  O_1 
REMARK    2  A    between atoms: C7_8  and  C8_9 
REMARK    3  A    between atoms: C8_9  and  C9_10 
REMARK    4  A    between atoms: C17_19  and  C20_22 
REMARK    5  A    between atoms: C20_22  and  C22_24 
REMARK    6  A    between atoms: C22_24  and  C23_25 
REMARK    7  A    between atoms: C23_25  and  C24_26 
REMARK    8  A    between atoms: C24_26  and  C25_27 
ROOT
HETATM    1  C9  VD3  7616      -0.914  35.404 233.049  1.00 20.00     0.013 C 
HETATM    2  C10 VD3  7616       0.606  35.436 232.487  1.00 20.00     0.009 C 
HETATM    3  C11 VD3  7616       1.007  36.626 231.691  1.00 20.00     0.001 C 
HETATM    4  C12 VD3  7616      -0.113  37.420 230.914  1.00 20.00     0.010 C 
HETATM    5  C13 VD3  7616      -1.437  37.606 231.670  1.00 20.00    -0.036 C 
HETATM    6  C14 VD3  7616      -1.395  36.952 233.105  1.00 20.00     0.002 C 
HETATM    7  C15 VD3  7616      -2.885  37.288 233.619  1.00 20.00     0.006 C 
HETATM    8  C16 VD3  7616      -3.261  38.726 232.932  1.00 20.00     0.006 C 
HETATM    9  C17 VD3  7616      -1.950  39.097 232.142  1.00 20.00    -0.002 C 
HETATM   10  C18 VD3  7616      -2.478  36.908 230.672  1.00 20.00     0.016 C 
ENDROOT
BRANCH   1  11
HETATM   11  C8  VD3  7616      -0.551  34.532 234.082  1.00 20.00    -0.021 C 
BRANCH  11  12
HETATM   12  C7  VD3  7616      -0.064  34.981 235.448  1.00 20.00     0.004 C 
HETATM   13  C5  VD3  7616       0.832  35.828 236.041  1.00 20.00    -0.051 C 
HETATM   14  C4  VD3  7616       0.496  37.390 236.203  1.00 20.00     0.070 C 
HETATM   15  C6  VD3  7616       2.227  35.459 236.603  1.00 20.00    -0.061 C 
HETATM   16  C3  VD3  7616       1.683  38.355 235.944  1.00 20.00     0.122 C 
HETATM   17  C2  VD3  7616       3.028  37.795 236.603  1.00 20.00     0.036 C 
HETATM   18  C1  VD3  7616       2.915  36.567 237.429  1.00 20.00     0.041 C 
HETATM   19  C19 VD3  7616       2.795  34.334 236.430  1.00 20.00     0.019 C 
BRANCH  16  20
HETATM   20  O   VD3  7616       1.389  39.646 236.513  1.00 20.00    -0.395 OA
ATOM     21  HO  VD3  7616       2.205  40.104 236.675  1.00  0.00     0.210 HD
ENDBRANCH  16  20
ENDBRANCH  11  12
ENDBRANCH   1  11
BRANCH   9  22
HETATM   22  C20 VD3  7616      -2.174  40.090 230.834  1.00 20.00    -0.014 C 
HETATM   23  C21 VD3  7616      -3.428  39.640 230.121  1.00 20.00     0.010 C 
BRANCH  22  24
HETATM   24  C22 VD3  7616      -1.156  40.116 229.634  1.00 20.00     0.005 C 
BRANCH  24  25
HETATM   25  C23 VD3  7616      -1.195  41.664 228.967  1.00 20.00     0.001 C 
BRANCH  25  26
HETATM   26  C24 VD3  7616       0.286  42.042 229.205  1.00 20.00     0.004 C 
BRANCH  26  27
HETATM   27  C25 VD3  7616       1.310  42.123 228.048  1.00 20.00    -0.023 C 
HETATM   28  C26 VD3  7616       0.945  43.465 227.787  1.00 20.00     0.009 C 
HETATM   29  C27 VD3  7616       2.709  42.476 228.057  1.00 20.00     0.009 C 
ENDBRANCH  26  27
ENDBRANCH  25  26
ENDBRANCH  24  25
ENDBRANCH  22  24
ENDBRANCH   9  22
TORSDOF 8
ENDMDL
MODEL 7
REMARK VINA RESULT:      -6.5      1.920      3.856
REMARK  8 active torsions:
REMARK  status: ('A' for Active; 'I' for Inactive)
REMARK    1  A    between atoms: C3_5  and  O_1 
REMARK    2  A    between atoms: C7_8  and  C8_9 
REMARK    3  A    between atoms: C8_9  and  C9_10 
REMARK    4  A    between atoms: C17_19  and  C20_22 
REMARK    5  A    between atoms: C20_22  and  C22_24 
REMARK    6  A    between atoms: C22_24  and  C23_25 
REMARK    7  A    between atoms: C23_25  and  C24_26 
REMARK    8  A    between atoms: C24_26  and  C25_27 
ROOT
HETATM    1  C9  VD3  7616      -1.029  35.611 232.410  1.00 20.00     0.013 C 
HETATM    2  C10 VD3  7616       0.476  35.547 231.809  1.00 20.00     0.009 C 
HETATM    3  C11 VD3  7616       0.876  36.634 230.877  1.00 20.00     0.001 C 
HETATM    4  C12 VD3  7616      -0.249  37.364 230.047  1.00 20.00     0.010 C 
HETATM    5  C13 VD3  7616      -1.547  37.660 230.813  1.00 20.00    -0.036 C 
HETATM    6  C14 VD3  7616      -1.477  37.165 232.309  1.00 20.00     0.002 C 
HETATM    7  C15 VD3  7616      -2.945  37.589 232.822  1.00 20.00     0.006 C 
HETATM    8  C16 VD3  7616      -3.312  38.952 231.992  1.00 20.00     0.006 C 
HETATM    9  C17 VD3  7616      -2.018  39.206 231.132  1.00 20.00    -0.002 C 
HETATM   10  C18 VD3  7616      -2.630  36.882 229.924  1.00 20.00     0.016 C 
ENDROOT
BRANCH   1  11
HETATM   11  C8  VD3  7616      -0.653  34.848 233.523  1.00 20.00    -0.021 C 
BRANCH  11  12
HETATM   12  C7  VD3  7616       0.571  35.126 234.375  1.00 20.00     0.004 C 
HETATM   13  C5  VD3  7616       0.967  35.810 235.492  1.00 20.00    -0.051 C 
HETATM   14  C4  VD3  7616       0.703  35.206 236.957  1.00 20.00     0.070 C 
HETATM   15  C6  VD3  7616       1.672  37.188 235.536  1.00 20.00    -0.061 C 
HETATM   16  C3  VD3  7616       0.260  36.236 238.030  1.00 20.00     0.122 C 
HETATM   17  C2  VD3  7616       1.105  37.588 237.906  1.00 20.00     0.036 C 
HETATM   18  C1  VD3  7616       2.214  37.603 236.921  1.00 20.00     0.041 C 
HETATM   19  C19 VD3  7616       1.823  37.948 234.527  1.00 20.00     0.019 C 
BRANCH  16  20
HETATM   20  O   VD3  7616       0.460  35.680 239.345  1.00 20.00    -0.395 OA
ATOM     21  HO  VD3  7616       1.310  35.955 239.668  1.00  0.00     0.210 HD
ENDBRANCH  16  20
ENDBRANCH  11  12
ENDBRANCH   1  11
BRANCH   9  22
HETATM   22  C20 VD3  7616      -2.259  40.055 229.729  1.00 20.00    -0.014 C 
HETATM   23  C21 VD3  7616      -1.175  41.104 229.633  1.00 20.00     0.010 C 
BRANCH  22  24
HETATM   24  C22 VD3  7616      -3.539  40.945 229.512  1.00 20.00     0.005 C 
BRANCH  24  25
HETATM   25  C23 VD3  7616      -4.668  40.015 228.674  1.00 20.00     0.001 C 
BRANCH  25  26
HETATM   26  C24 VD3  7616      -4.934  40.994 227.506  1.00 20.00     0.004 C 
BRANCH  26  27
HETATM   27  C25 VD3  7616      -3.820  41.887 226.912  1.00 20.00    -0.023 C 
HETATM   28  C26 VD3  7616      -4.034  41.338 225.625  1.00 20.00     0.009 C 
HETATM   29  C27 VD3  7616      -3.877  43.227 226.380  1.00 20.00     0.009 C 
ENDBRANCH  26  27
ENDBRANCH  25  26
ENDBRANCH  24  25
ENDBRANCH  22  24
ENDBRANCH   9  22
TORSDOF 8
ENDMDL
MODEL 8
REMARK VINA RESULT:      -6.4      1.624      2.527
REMARK  8 active torsions:
REMARK  status: ('A' for Active; 'I' for Inactive)
REMARK    1  A    between atoms: C3_5  and  O_1 
REMARK    2  A    between atoms: C7_8  and  C8_9 
REMARK    3  A    between atoms: C8_9  and  C9_10 
REMARK    4  A    between atoms: C17_19  and  C20_22 
REMARK    5  A    between atoms: C20_22  and  C22_24 
REMARK    6  A    between atoms: C22_24  and  C23_25 
REMARK    7  A    between atoms: C23_25  and  C24_26 
REMARK    8  A    between atoms: C24_26  and  C25_27 
ROOT
HETATM    1  C9  VD3  7616      -1.800  36.442 235.891  1.00 20.00     0.013 C 
HETATM    2  C10 VD3  7616      -2.792  35.166 236.027  1.00 20.00     0.009 C 
HETATM    3  C11 VD3  7616      -2.877  34.250 234.860  1.00 20.00     0.001 C 
HETATM    4  C12 VD3  7616      -2.570  34.831 233.425  1.00 20.00     0.010 C 
HETATM    5  C13 VD3  7616      -1.393  35.814 233.349  1.00 20.00    -0.036 C 
HETATM    6  C14 VD3  7616      -0.716  36.036 234.756  1.00 20.00     0.002 C 
HETATM    7  C15 VD3  7616       0.432  37.096 234.359  1.00 20.00     0.006 C 
HETATM    8  C16 VD3  7616       0.869  36.703 232.832  1.00 20.00     0.006 C 
HETATM    9  C17 VD3  7616      -0.021  35.442 232.519  1.00 20.00    -0.002 C 
HETATM   10  C18 VD3  7616      -2.105  37.124 232.760  1.00 20.00     0.016 C 
ENDROOT
BRANCH   1  11
HETATM   11  C8  VD3  7616      -1.665  36.529 237.282  1.00 20.00    -0.021 C 
BRANCH  11  12
HETATM   12  C7  VD3  7616      -0.382  36.231 238.036  1.00 20.00     0.004 C 
HETATM   13  C5  VD3  7616       0.971  36.424 237.967  1.00 20.00    -0.051 C 
HETATM   14  C4  VD3  7616       1.621  37.823 238.420  1.00 20.00     0.070 C 
HETATM   15  C6  VD3  7616       2.030  35.412 237.467  1.00 20.00    -0.061 C 
HETATM   16  C3  VD3  7616       2.779  38.337 237.525  1.00 20.00     0.122 C 
HETATM   17  C2  VD3  7616       3.758  37.140 237.116  1.00 20.00     0.036 C 
HETATM   18  C1  VD3  7616       3.497  35.815 237.728  1.00 20.00     0.041 C 
HETATM   19  C19 VD3  7616       1.754  34.313 236.888  1.00 20.00     0.019 C 
BRANCH  16  20
HETATM   20  O   VD3  7616       3.535  39.334 238.239  1.00 20.00    -0.395 OA
ATOM     21  HO  VD3  7616       4.082  39.806 237.622  1.00  0.00     0.210 HD
ENDBRANCH  16  20
ENDBRANCH  11  12
ENDBRANCH   1  11
BRANCH   9  22
HETATM   22  C20 VD3  7616      -0.347  35.189 230.914  1.00 20.00    -0.014 C 
HETATM   23  C21 VD3  7616      -0.255  33.703 230.653  1.00 20.00     0.010 C 
BRANCH  22  24
HETATM   24  C22 VD3  7616       0.600  35.738 229.783  1.00 20.00     0.005 C 
BRANCH  24  25
HETATM   25  C23 VD3  7616      -0.297  36.815 228.847  1.00 20.00     0.001 C 
BRANCH  25  26
HETATM   26  C24 VD3  7616      -0.148  38.064 229.747  1.00 20.00     0.004 C 
BRANCH  26  27
HETATM   27  C25 VD3  7616      -1.072  39.296 229.604  1.00 20.00    -0.023 C 
HETATM   28  C26 VD3  7616      -2.202  38.458 229.446  1.00 20.00     0.009 C 
HETATM   29  C27 VD3  7616      -1.756  40.076 230.606  1.00 20.00     0.009 C 
ENDBRANCH  26  27
ENDBRANCH  25  26
ENDBRANCH  24  25
ENDBRANCH  22  24
ENDBRANCH   9  22
TORSDOF 8
ENDMDL
MODEL 9
REMARK VINA RESULT:      -6.3      3.077      8.610
REMARK  8 active torsions:
REMARK  status: ('A' for Active; 'I' for Inactive)
REMARK    1  A    between atoms: C3_5  and  O_1 
REMARK    2  A    between atoms: C7_8  and  C8_9 
REMARK    3  A    between atoms: C8_9  and  C9_10 
REMARK    4  A    between atoms: C17_19  and  C20_22 
REMARK    5  A    between atoms: C20_22  and  C22_24 
REMARK    6  A    between atoms: C22_24  and  C23_25 
REMARK    7  A    between atoms: C23_25  and  C24_26 
REMARK    8  A    between atoms: C24_26  and  C25_27 
ROOT
HETATM    1  C9  VD3  7616      -1.272  38.445 232.289  1.00 20.00     0.013 C 
HETATM    2  C10 VD3  7616      -0.491  37.974 230.948  1.00 20.00     0.009 C 
HETATM    3  C11 VD3  7616       0.506  36.882 231.096  1.00 20.00     0.001 C 
HETATM    4  C12 VD3  7616       1.206  36.688 232.497  1.00 20.00     0.010 C 
HETATM    5  C13 VD3  7616       0.292  36.855 233.719  1.00 20.00    -0.036 C 
HETATM    6  C14 VD3  7616      -1.194  37.186 233.307  1.00 20.00     0.002 C 
HETATM    7  C15 VD3  7616      -1.875  37.316 234.763  1.00 20.00     0.006 C 
HETATM    8  C16 VD3  7616      -1.068  36.252 235.709  1.00 20.00     0.006 C 
HETATM    9  C17 VD3  7616      -0.050  35.585 234.710  1.00 20.00    -0.002 C 
HETATM   10  C18 VD3  7616       1.025  38.042 234.508  1.00 20.00     0.016 C 
ENDROOT
BRANCH   1  11
HETATM   11  C8  VD3  7616      -2.345  38.933 231.534  1.00 20.00    -0.021 C 
BRANCH  11  12
HETATM   12  C7  VD3  7616      -2.368  38.991 230.018  1.00 20.00     0.004 C 
HETATM   13  C5  VD3  7616      -3.234  39.030 228.959  1.00 20.00    -0.051 C 
HETATM   14  C4  VD3  7616      -3.929  40.411 228.523  1.00 20.00     0.070 C 
HETATM   15  C6  VD3  7616      -3.673  37.838 228.074  1.00 20.00    -0.061 C 
HETATM   16  C3  VD3  7616      -5.419  40.302 228.106  1.00 20.00     0.122 C 
HETATM   17  C2  VD3  7616      -5.665  39.007 227.200  1.00 20.00     0.036 C 
HETATM   18  C1  VD3  7616      -4.469  38.221 226.808  1.00 20.00     0.041 C 
HETATM   19  C19 VD3  7616      -3.409  36.621 228.329  1.00 20.00     0.019 C 
BRANCH  16  20
HETATM   20  O   VD3  7616      -5.799  41.473 227.357  1.00 20.00    -0.395 OA
ATOM     21  HO  VD3  7616      -6.541  41.884 227.784  1.00  0.00     0.210 HD
ENDBRANCH  16  20
ENDBRANCH  11  12
ENDBRANCH   1  11
BRANCH   9  22
HETATM   22  C20 VD3  7616       1.330  34.985 235.406  1.00 20.00    -0.014 C 
HETATM   23  C21 VD3  7616       1.321  33.484 235.229  1.00 20.00     0.010 C 
BRANCH  22  24
HETATM   24  C22 VD3  7616       1.586  35.090 236.955  1.00 20.00     0.005 C 
BRANCH  24  25
HETATM   25  C23 VD3  7616       3.254  35.153 237.192  1.00 20.00     0.001 C 
BRANCH  25  26
HETATM   26  C24 VD3  7616       3.447  36.674 236.991  1.00 20.00     0.004 C 
BRANCH  26  27
HETATM   27  C25 VD3  7616       2.802  37.717 237.935  1.00 20.00    -0.023 C 
HETATM   28  C26 VD3  7616       3.649  37.314 238.995  1.00 20.00     0.009 C 
HETATM   29  C27 VD3  7616       3.129  39.103 238.163  1.00 20.00     0.009 C 
ENDBRANCH  26  27
ENDBRANCH  25  26
ENDBRANCH  24  25
ENDBRANCH  22  24
ENDBRANCH   9  22
TORSDOF 8
ENDMDL
