MODEL 1
REMARK VINA RESULT:      -8.4      0.000      0.000
REMARK  4 active torsions:
REMARK  status: ('A' for Active; 'I' for Inactive)
REMARK    1  A    between atoms: C14_3  and  O18_1 
REMARK    2  A    between atoms: C20_7  and  O23_8 
REMARK    3  A    between atoms: C21_12  and  C25_15 
REMARK    4  A    between atoms: C21_12  and  O24_13 
ROOT
HETATM    1  C14 EHD  3335      -1.684  42.585 227.713  1.00 20.00     0.152 A 
HETATM    2  C15 EHD  3335      -0.684  43.400 228.128  1.00 20.00     0.026 A 
HETATM    3  C19 EHD  3335      -0.287  44.500 227.195  1.00 20.00     0.214 C 
HETATM    4  O22 EHD  3335       0.026  45.689 227.982  1.00 20.00    -0.353 OA
HETATM    5  C20 EHD  3335       0.700  45.629 229.218  1.00 20.00     0.296 C 
HETATM    6  C16 EHD  3335       0.010  43.282 229.402  1.00 20.00    -0.004 A 
HETATM    7  C17 EHD  3335      -0.478  42.209 230.196  1.00 20.00     0.043 A 
HETATM    8  C21 EHD  3335       1.116  44.287 229.776  1.00 20.00     0.135 C 
HETATM    9  N12 EHD  3335      -2.100  41.560 228.546  1.00 20.00    -0.321 N 
HETATM   10  C11 EHD  3335      -3.165  40.627 228.228  1.00 20.00     0.172 A 
HETATM   11  C8  EHD  3335      -3.196  39.792 229.467  1.00 20.00    -0.010 A 
HETATM   12  C7  EHD  3335      -3.940  38.756 229.873  1.00 20.00     0.025 A 
HETATM   13  C6  EHD  3335      -3.735  38.164 231.127  1.00 20.00    -0.009 A 
HETATM   14  C5  EHD  3335      -2.698  38.708 231.981  1.00 20.00     0.043 A 
HETATM   15  N10 EHD  3335      -1.860  39.829 231.593  1.00 20.00    -0.353 N 
ATOM     16  H10 EHD  3335      -1.129  40.213 232.191  1.00  0.00     0.166 HD
HETATM   17  C9  EHD  3335      -2.144  40.312 230.369  1.00 20.00     0.068 A 
HETATM   18  C13 EHD  3335      -1.528  41.374 229.743  1.00 20.00     0.065 A 
HETATM   19  C1  EHD  3335      -4.502  37.076 231.559  1.00 20.00     0.014 A 
HETATM   20  C2  EHD  3335      -4.269  36.521 232.802  1.00 20.00     0.001 A 
HETATM   21  C3  EHD  3335      -3.252  37.058 233.641  1.00 20.00     0.002 A 
HETATM   22  C4  EHD  3335      -2.443  38.176 233.218  1.00 20.00     0.030 A 
ENDROOT
BRANCH   8  23
HETATM   23  C25 EHD  3335       2.492  43.877 229.197  1.00 20.00     0.043 C 
HETATM   24  C31 EHD  3335       3.704  44.114 230.169  1.00 20.00     0.009 C 
ENDBRANCH   8  23
BRANCH   8  25
HETATM   25  O24 EHD  3335       1.196  44.457 231.105  1.00 20.00    -0.380 OA
ATOM     26  H24 EHD  3335       1.301  45.373 231.332  1.00  0.00     0.211 HD
ENDBRANCH   8  25
BRANCH   5  27
HETATM   27  O23 EHD  3335       0.936  46.739 229.872  1.00 20.00    -0.368 OA
ATOM     28  H23 EHD  3335       0.315  47.455 229.809  1.00  0.00     0.212 HD
ENDBRANCH   5  27
BRANCH   1  29
HETATM   29  O18 EHD  3335      -2.286  42.778 226.519  1.00 20.00    -0.345 OA
ATOM     30  H18 EHD  3335      -2.515  42.035 225.972  1.00  0.00     0.219 HD
ENDBRANCH   1  29
TORSDOF 4
ENDMDL
MODEL 2
REMARK VINA RESULT:      -7.4      7.120      9.977
REMARK  4 active torsions:
REMARK  status: ('A' for Active; 'I' for Inactive)
REMARK    1  A    between atoms: C14_3  and  O18_1 
REMARK    2  A    between atoms: C20_7  and  O23_8 
REMARK    3  A    between atoms: C21_12  and  C25_15 
REMARK    4  A    between atoms: C21_12  and  O24_13 
ROOT
HETATM    1  C14 EHD  3335       1.282  34.624 237.412  1.00 20.00     0.152 A 
HETATM    2  C15 EHD  3335       1.819  35.700 238.039  1.00 20.00     0.026 A 
HETATM    3  C19 EHD  3335       2.128  35.540 239.494  1.00 20.00     0.214 C 
HETATM    4  O22 EHD  3335       3.372  36.244 239.787  1.00 20.00    -0.353 OA
HETATM    5  C20 EHD  3335       3.703  37.481 239.198  1.00 20.00     0.296 C 
HETATM    6  C16 EHD  3335       2.115  36.973 237.399  1.00 20.00    -0.004 A 
HETATM    7  C17 EHD  3335       1.789  36.981 236.016  1.00 20.00     0.043 A 
HETATM    8  C21 EHD  3335       2.750  38.117 238.212  1.00 20.00     0.135 C 
HETATM    9  N12 EHD  3335       0.991  34.716 236.060  1.00 20.00    -0.321 N 
HETATM   10  C11 EHD  3335       0.428  33.637 235.269  1.00 20.00     0.172 A 
HETATM   11  C8  EHD  3335       0.362  34.274 233.919  1.00 20.00    -0.010 A 
HETATM   12  C7  EHD  3335      -0.038  33.858 232.712  1.00 20.00     0.025 A 
HETATM   13  C6  EHD  3335       0.024  34.703 231.596  1.00 20.00    -0.009 A 
HETATM   14  C5  EHD  3335       0.541  36.045 231.780  1.00 20.00     0.043 A 
HETATM   15  N10 EHD  3335       0.989  36.551 233.065  1.00 20.00    -0.353 N 
ATOM     16  H10 EHD  3335       1.352  37.495 233.199  1.00  0.00     0.166 HD
HETATM   17  C9  EHD  3335       0.879  35.654 234.064  1.00 20.00     0.068 A 
HETATM   18  C13 EHD  3335       1.235  35.843 235.381  1.00 20.00     0.065 A 
HETATM   19  C1  EHD  3335      -0.398  34.281 230.330  1.00 20.00     0.014 A 
HETATM   20  C2  EHD  3335      -0.320  35.145 229.256  1.00 20.00     0.001 A 
HETATM   21  C3  EHD  3335       0.191  36.461 229.438  1.00 20.00     0.002 A 
HETATM   22  C4  EHD  3335       0.628  36.924 230.733  1.00 20.00     0.030 A 
ENDROOT
BRANCH   8  23
HETATM   23  C25 EHD  3335       1.687  38.952 238.966  1.00 20.00     0.043 C 
HETATM   24  C31 EHD  3335       0.656  39.687 238.035  1.00 20.00     0.009 C 
ENDBRANCH   8  23
BRANCH   8  25
HETATM   25  O24 EHD  3335       3.508  38.909 237.436  1.00 20.00    -0.380 OA
ATOM     26  H24 EHD  3335       3.114  39.765 237.324  1.00  0.00     0.211 HD
ENDBRANCH   8  25
BRANCH   5  27
HETATM   27  O23 EHD  3335       4.844  38.049 239.502  1.00 20.00    -0.368 OA
ATOM     28  H23 EHD  3335       4.988  38.956 239.262  1.00  0.00     0.212 HD
ENDBRANCH   5  27
BRANCH   1  29
HETATM   29  O18 EHD  3335       1.056  33.473 238.080  1.00 20.00    -0.345 OA
ATOM     30  H18 EHD  3335       0.504  32.798 237.700  1.00  0.00     0.219 HD
ENDBRANCH   1  29
TORSDOF 4
ENDMDL
MODEL 3
REMARK VINA RESULT:      -7.0      5.105      7.949
REMARK  4 active torsions:
REMARK  status: ('A' for Active; 'I' for Inactive)
REMARK    1  A    between atoms: C14_3  and  O18_1 
REMARK    2  A    between atoms: C20_7  and  O23_8 
REMARK    3  A    between atoms: C21_12  and  C25_15 
REMARK    4  A    between atoms: C21_12  and  O24_13 
ROOT
HETATM    1  C14 EHD  3335       0.136  35.249 234.020  1.00 20.00     0.152 A 
HETATM    2  C15 EHD  3335       0.722  35.954 235.019  1.00 20.00     0.026 A 
HETATM    3  C19 EHD  3335       1.492  35.165 236.030  1.00 20.00     0.214 C 
HETATM    4  O22 EHD  3335       2.680  35.924 236.408  1.00 20.00    -0.353 OA
HETATM    5  C20 EHD  3335       2.670  37.325 236.566  1.00 20.00     0.296 C 
HETATM    6  C16 EHD  3335       0.659  37.400 235.164  1.00 20.00    -0.004 A 
HETATM    7  C17 EHD  3335      -0.088  38.024 234.128  1.00 20.00     0.043 A 
HETATM    8  C21 EHD  3335       1.390  38.093 236.330  1.00 20.00     0.135 C 
HETATM    9  N12 EHD  3335      -0.577  35.934 233.049  1.00 20.00    -0.321 N 
HETATM   10  C11 EHD  3335      -1.241  35.303 231.923  1.00 20.00     0.172 A 
HETATM   11  C8  EHD  3335      -1.800  36.494 231.215  1.00 20.00    -0.010 A 
HETATM   12  C7  EHD  3335      -2.515  36.661 230.095  1.00 20.00     0.025 A 
HETATM   13  C6  EHD  3335      -2.903  37.937 229.666  1.00 20.00    -0.009 A 
HETATM   14  C5  EHD  3335      -2.504  39.079 230.464  1.00 20.00     0.043 A 
HETATM   15  N10 EHD  3335      -1.730  38.959 231.687  1.00 20.00    -0.353 N 
ATOM     16  H10 EHD  3335      -1.449  39.761 232.252  1.00  0.00     0.166 HD
HETATM   17  C9  EHD  3335      -1.419  37.688 232.003  1.00 20.00     0.068 A 
HETATM   18  C13 EHD  3335      -0.687  37.268 233.091  1.00 20.00     0.065 A 
HETATM   19  C1  EHD  3335      -3.656  38.123 228.501  1.00 20.00     0.014 A 
HETATM   20  C2  EHD  3335      -4.018  39.398 228.113  1.00 20.00     0.001 A 
HETATM   21  C3  EHD  3335      -3.623  40.519 228.896  1.00 20.00     0.002 A 
HETATM   22  C4  EHD  3335      -2.851  40.355 230.104  1.00 20.00     0.030 A 
ENDROOT
BRANCH   8  23
HETATM   23  C25 EHD  3335       0.536  38.109 237.621  1.00 20.00     0.043 C 
HETATM   24  C31 EHD  3335       0.349  39.533 238.260  1.00 20.00     0.009 C 
ENDBRANCH   8  23
BRANCH   8  25
HETATM   25  O24 EHD  3335       1.770  39.337 236.001  1.00 20.00    -0.380 OA
ATOM     26  H24 EHD  3335       2.544  39.330 235.450  1.00  0.00     0.211 HD
ENDBRANCH   8  25
BRANCH   5  27
HETATM   27  O23 EHD  3335       3.779  37.939 236.897  1.00 20.00    -0.368 OA
ATOM     28  H23 EHD  3335       4.580  37.731 236.431  1.00  0.00     0.212 HD
ENDBRANCH   5  27
BRANCH   1  29
HETATM   29  O18 EHD  3335       0.261  33.906 233.952  1.00 20.00    -0.345 OA
ATOM     30  H18 EHD  3335      -0.179  33.418 233.265  1.00  0.00     0.219 HD
ENDBRANCH   1  29
TORSDOF 4
ENDMDL
MODEL 4
REMARK VINA RESULT:      -7.0      5.298      8.558
REMARK  4 active torsions:
REMARK  status: ('A' for Active; 'I' for Inactive)
REMARK    1  A    between atoms: C14_3  and  O18_1 
REMARK    2  A    between atoms: C20_7  and  O23_8 
REMARK    3  A    between atoms: C21_12  and  C25_15 
REMARK    4  A    between atoms: C21_12  and  O24_13 
ROOT
HETATM    1  C14 EHD  3335      -1.506  36.327 236.426  1.00 20.00     0.152 A 
HETATM    2  C15 EHD  3335      -0.341  36.701 237.009  1.00 20.00     0.026 A 
HETATM    3  C19 EHD  3335       0.016  36.015 238.290  1.00 20.00     0.214 C 
HETATM    4  O22 EHD  3335       1.458  35.790 238.313  1.00 20.00    -0.353 OA
HETATM    5  C20 EHD  3335       2.383  36.728 237.814  1.00 20.00     0.296 C 
HETATM    6  C16 EHD  3335       0.572  37.701 236.476  1.00 20.00    -0.004 A 
HETATM    7  C17 EHD  3335       0.121  38.258 235.249  1.00 20.00     0.043 A 
HETATM    8  C21 EHD  3335       1.884  38.024 237.217  1.00 20.00     0.135 C 
HETATM    9  N12 EHD  3335      -1.875  36.921 235.230  1.00 20.00    -0.321 N 
HETATM   10  C11 EHD  3335      -3.087  36.603 234.498  1.00 20.00     0.172 A 
HETATM   11  C8  EHD  3335      -2.948  37.497 233.309  1.00 20.00    -0.010 A 
HETATM   12  C7  EHD  3335      -3.691  37.716 232.217  1.00 20.00     0.025 A 
HETATM   13  C6  EHD  3335      -3.291  38.640 231.242  1.00 20.00    -0.009 A 
HETATM   14  C5  EHD  3335      -2.043  39.350 231.441  1.00 20.00     0.043 A 
HETATM   15  N10 EHD  3335      -1.197  39.154 232.605  1.00 20.00    -0.353 N 
ATOM     16  H10 EHD  3335      -0.319  39.653 232.749  1.00  0.00     0.166 HD
HETATM   17  C9  EHD  3335      -1.684  38.248 233.475  1.00 20.00     0.068 A 
HETATM   18  C13 EHD  3335      -1.098  37.847 234.655  1.00 20.00     0.065 A 
HETATM   19  C1  EHD  3335      -4.062  38.882 230.099  1.00 20.00     0.014 A 
HETATM   20  C2  EHD  3335      -3.632  39.801 229.162  1.00 20.00     0.001 A 
HETATM   21  C3  EHD  3335      -2.405  40.495 229.357  1.00 20.00     0.002 A 
HETATM   22  C4  EHD  3335      -1.593  40.268 230.529  1.00 20.00     0.030 A 
ENDROOT
BRANCH   8  23
HETATM   23  C25 EHD  3335       1.675  39.075 238.333  1.00 20.00     0.043 C 
HETATM   24  C31 EHD  3335       0.251  39.741 238.343  1.00 20.00     0.009 C 
ENDBRANCH   8  23
BRANCH   8  25
HETATM   25  O24 EHD  3335       2.843  38.423 236.367  1.00 20.00    -0.380 OA
ATOM     26  H24 EHD  3335       3.539  37.782 236.302  1.00  0.00     0.211 HD
ENDBRANCH   8  25
BRANCH   5  27
HETATM   27  O23 EHD  3335       3.663  36.450 237.859  1.00 20.00    -0.368 OA
ATOM     28  H23 EHD  3335       4.084  36.081 237.092  1.00  0.00     0.212 HD
ENDBRANCH   5  27
BRANCH   1  29
HETATM   29  O18 EHD  3335      -2.286  35.375 236.983  1.00 20.00    -0.345 OA
ATOM     30  H18 EHD  3335      -2.917  34.902 236.452  1.00  0.00     0.219 HD
ENDBRANCH   1  29
TORSDOF 4
ENDMDL
MODEL 5
REMARK VINA RESULT:      -7.0      5.956      7.874
REMARK  4 active torsions:
REMARK  status: ('A' for Active; 'I' for Inactive)
REMARK    1  A    between atoms: C14_3  and  O18_1 
REMARK    2  A    between atoms: C20_7  and  O23_8 
REMARK    3  A    between atoms: C21_12  and  C25_15 
REMARK    4  A    between atoms: C21_12  and  O24_13 
ROOT
HETATM    1  C14 EHD  3335      -1.924  37.419 231.701  1.00 20.00     0.152 A 
HETATM    2  C15 EHD  3335      -1.363  36.761 230.658  1.00 20.00     0.026 A 
HETATM    3  C19 EHD  3335      -2.209  36.600 229.435  1.00 20.00     0.214 C 
HETATM    4  O22 EHD  3335      -1.360  36.747 228.257  1.00 20.00    -0.353 OA
HETATM    5  C20 EHD  3335      -0.048  36.235 228.195  1.00 20.00     0.296 C 
HETATM    6  C16 EHD  3335      -0.013  36.217 230.648  1.00 20.00    -0.004 A 
HETATM    7  C17 EHD  3335       0.684  36.455 231.863  1.00 20.00     0.043 A 
HETATM    8  C21 EHD  3335       0.526  35.509 229.390  1.00 20.00     0.135 C 
HETATM    9  N12 EHD  3335      -1.177  37.608 232.852  1.00 20.00    -0.321 N 
HETATM   10  C11 EHD  3335      -1.653  38.304 234.033  1.00 20.00     0.172 A 
HETATM   11  C8  EHD  3335      -0.450  38.232 234.916  1.00 20.00    -0.010 A 
HETATM   12  C7  EHD  3335      -0.169  38.678 236.146  1.00 20.00     0.025 A 
HETATM   13  C6  EHD  3335       1.086  38.456 236.729  1.00 20.00    -0.009 A 
HETATM   14  C5  EHD  3335       2.080  37.734 235.961  1.00 20.00     0.043 A 
HETATM   15  N10 EHD  3335       1.832  37.226 234.623  1.00 20.00    -0.353 N 
ATOM     16  H10 EHD  3335       2.529  36.716 234.080  1.00  0.00     0.166 HD
HETATM   17  C9  EHD  3335       0.593  37.494 234.169  1.00 20.00     0.068 A 
HETATM   18  C13 EHD  3335       0.079  37.151 232.938  1.00 20.00     0.065 A 
HETATM   19  C1  EHD  3335       1.389  38.912 238.017  1.00 20.00     0.014 A 
HETATM   20  C2  EHD  3335       2.637  38.672 238.555  1.00 20.00     0.001 A 
HETATM   21  C3  EHD  3335       3.614  37.966 237.799  1.00 20.00     0.002 A 
HETATM   22  C4  EHD  3335       3.327  37.480 236.470  1.00 20.00     0.030 A 
ENDROOT
BRANCH   8  23
HETATM   23  C25 EHD  3335       0.121  34.016 229.347  1.00 20.00     0.043 C 
HETATM   24  C31 EHD  3335       0.943  33.147 228.328  1.00 20.00     0.009 C 
ENDBRANCH   8  23
BRANCH   8  25
HETATM   25  O24 EHD  3335       1.858  35.639 229.286  1.00 20.00    -0.380 OA
ATOM     26  H24 EHD  3335       2.223  35.004 228.682  1.00  0.00     0.211 HD
ENDBRANCH   8  25
BRANCH   5  27
HETATM   27  O23 EHD  3335       0.657  36.415 227.107  1.00 20.00    -0.368 OA
ATOM     28  H23 EHD  3335       1.169  35.694 226.761  1.00  0.00     0.212 HD
ENDBRANCH   5  27
BRANCH   1  29
HETATM   29  O18 EHD  3335      -3.181  37.908 231.618  1.00 20.00    -0.345 OA
ATOM     30  H18 EHD  3335      -3.926  37.317 231.616  1.00  0.00     0.219 HD
ENDBRANCH   1  29
TORSDOF 4
ENDMDL
MODEL 6
REMARK VINA RESULT:      -7.0      6.863      8.924
REMARK  4 active torsions:
REMARK  status: ('A' for Active; 'I' for Inactive)
REMARK    1  A    between atoms: C14_3  and  O18_1 
REMARK    2  A    between atoms: C20_7  and  O23_8 
REMARK    3  A    between atoms: C21_12  and  C25_15 
REMARK    4  A    between atoms: C21_12  and  O24_13 
ROOT
HETATM    1  C14 EHD  3335       0.513  34.182 234.810  1.00 20.00     0.152 A 
HETATM    2  C15 EHD  3335       0.947  35.313 235.417  1.00 20.00     0.026 A 
HETATM    3  C19 EHD  3335       1.225  35.221 236.884  1.00 20.00     0.214 C 
HETATM    4  O22 EHD  3335       2.403  36.027 237.188  1.00 20.00    -0.353 OA
HETATM    5  C20 EHD  3335       2.656  37.268 236.569  1.00 20.00     0.296 C 
HETATM    6  C16 EHD  3335       1.164  36.586 234.746  1.00 20.00    -0.004 A 
HETATM    7  C17 EHD  3335       0.879  36.528 233.354  1.00 20.00     0.043 A 
HETATM    8  C21 EHD  3335       1.687  37.799 235.538  1.00 20.00     0.135 C 
HETATM    9  N12 EHD  3335       0.255  34.210 233.449  1.00 20.00    -0.321 N 
HETATM   10  C11 EHD  3335      -0.201  33.069 232.678  1.00 20.00     0.172 A 
HETATM   11  C8  EHD  3335      -0.275  33.658 231.307  1.00 20.00    -0.010 A 
HETATM   12  C7  EHD  3335      -0.607  33.177 230.103  1.00 20.00     0.025 A 
HETATM   13  C6  EHD  3335      -0.577  33.991 228.963  1.00 20.00    -0.009 A 
HETATM   14  C5  EHD  3335      -0.169  35.373 229.119  1.00 20.00     0.043 A 
HETATM   15  N10 EHD  3335       0.201  35.951 230.398  1.00 20.00    -0.353 N 
ATOM     16  H10 EHD  3335       0.488  36.923 230.512  1.00  0.00     0.166 HD
HETATM   17  C9  EHD  3335       0.130  35.077 231.421  1.00 20.00     0.068 A 
HETATM   18  C13 EHD  3335       0.432  35.333 232.741  1.00 20.00     0.065 A 
HETATM   19  C1  EHD  3335      -0.928  33.501 227.700  1.00 20.00     0.014 A 
HETATM   20  C2  EHD  3335      -0.885  34.336 226.601  1.00 20.00     0.001 A 
HETATM   21  C3  EHD  3335      -0.481  35.693 226.755  1.00 20.00     0.002 A 
HETATM   22  C4  EHD  3335      -0.119  36.226 228.046  1.00 20.00     0.030 A 
ENDROOT
BRANCH   8  23
HETATM   23  C25 EHD  3335       0.542  38.572 236.236  1.00 20.00     0.043 C 
HETATM   24  C31 EHD  3335       1.023  39.672 237.251  1.00 20.00     0.009 C 
ENDBRANCH   8  23
BRANCH   8  25
HETATM   25  O24 EHD  3335       2.404  38.623 234.758  1.00 20.00    -0.380 OA
ATOM     26  H24 EHD  3335       2.286  39.531 235.011  1.00  0.00     0.211 HD
ENDBRANCH   8  25
BRANCH   5  27
HETATM   27  O23 EHD  3335       3.741  37.930 236.886  1.00 20.00    -0.368 OA
ATOM     28  H23 EHD  3335       3.778  38.389 237.717  1.00  0.00     0.212 HD
ENDBRANCH   5  27
BRANCH   1  29
HETATM   29  O18 EHD  3335       0.355  33.036 235.509  1.00 20.00    -0.345 OA
ATOM     30  H18 EHD  3335      -0.424  32.505 235.388  1.00  0.00     0.219 HD
ENDBRANCH   1  29
TORSDOF 4
ENDMDL
MODEL 7
REMARK VINA RESULT:      -6.9      5.811      8.545
REMARK  4 active torsions:
REMARK  status: ('A' for Active; 'I' for Inactive)
REMARK    1  A    between atoms: C14_3  and  O18_1 
REMARK    2  A    between atoms: C20_7  and  O23_8 
REMARK    3  A    between atoms: C21_12  and  C25_15 
REMARK    4  A    between atoms: C21_12  and  O24_13 
ROOT
HETATM    1  C14 EHD  3335      -0.331  35.160 233.079  1.00 20.00     0.152 A 
HETATM    2  C15 EHD  3335      -0.955  36.067 232.290  1.00 20.00     0.026 A 
HETATM    3  C19 EHD  3335      -1.770  35.522 231.159  1.00 20.00     0.214 C 
HETATM    4  O22 EHD  3335      -2.969  36.341 231.012  1.00 20.00    -0.353 OA
HETATM    5  C20 EHD  3335      -2.961  37.741 231.173  1.00 20.00     0.296 C 
HETATM    6  C16 EHD  3335      -0.893  37.510 232.471  1.00 20.00    -0.004 A 
HETATM    7  C17 EHD  3335      -0.102  37.889 233.590  1.00 20.00     0.043 A 
HETATM    8  C21 EHD  3335      -1.669  38.443 231.523  1.00 20.00     0.135 C 
HETATM    9  N12 EHD  3335       0.424  35.612 234.149  1.00 20.00    -0.321 N 
HETATM   10  C11 EHD  3335       1.132  34.747 235.075  1.00 20.00     0.172 A 
HETATM   11  C8  EHD  3335       1.725  35.751 236.010  1.00 20.00    -0.010 A 
HETATM   12  C7  EHD  3335       2.485  35.665 237.108  1.00 20.00     0.025 A 
HETATM   13  C6  EHD  3335       2.896  36.814 237.798  1.00 20.00    -0.009 A 
HETATM   14  C5  EHD  3335       2.468  38.105 237.294  1.00 20.00     0.043 A 
HETATM   15  N10 EHD  3335       1.644  38.259 236.109  1.00 20.00    -0.353 N 
ATOM     16  H10 EHD  3335       1.342  39.165 235.752  1.00  0.00     0.166 HD
HETATM   17  C9  EHD  3335       1.315  37.089 235.528  1.00 20.00     0.068 A 
HETATM   18  C13 EHD  3335       0.537  36.921 234.404  1.00 20.00     0.065 A 
HETATM   19  C1  EHD  3335       3.697  36.737 238.943  1.00 20.00     0.014 A 
HETATM   20  C2  EHD  3335       4.079  37.894 239.593  1.00 20.00     0.001 A 
HETATM   21  C3  EHD  3335       3.656  39.160 239.100  1.00 20.00     0.002 A 
HETATM   22  C4  EHD  3335       2.834  39.268 237.919  1.00 20.00     0.030 A 
ENDROOT
BRANCH   8  23
HETATM   23  C25 EHD  3335      -0.870  38.756 230.235  1.00 20.00     0.043 C 
HETATM   24  C31 EHD  3335      -1.079  40.209 229.675  1.00 20.00     0.009 C 
ENDBRANCH   8  23
BRANCH   8  25
HETATM   25  O24 EHD  3335      -2.031  39.579 232.140  1.00 20.00    -0.380 OA
ATOM     26  H24 EHD  3335      -2.976  39.649 232.212  1.00  0.00     0.211 HD
ENDBRANCH   8  25
BRANCH   5  27
HETATM   27  O23 EHD  3335      -4.080  38.407 231.035  1.00 20.00    -0.368 OA
ATOM     28  H23 EHD  3335      -4.692  38.148 230.356  1.00  0.00     0.212 HD
ENDBRANCH   5  27
BRANCH   1  29
HETATM   29  O18 EHD  3335      -0.457  33.835 232.847  1.00 20.00    -0.345 OA
ATOM     30  H18 EHD  3335      -0.004  33.206 233.398  1.00  0.00     0.219 HD
ENDBRANCH   1  29
TORSDOF 4
ENDMDL
MODEL 8
REMARK VINA RESULT:      -6.9      7.689     11.043
REMARK  4 active torsions:
REMARK  status: ('A' for Active; 'I' for Inactive)
REMARK    1  A    between atoms: C14_3  and  O18_1 
REMARK    2  A    between atoms: C20_7  and  O23_8 
REMARK    3  A    between atoms: C21_12  and  C25_15 
REMARK    4  A    between atoms: C21_12  and  O24_13 
ROOT
HETATM    1  C14 EHD  3335       0.264  35.309 232.972  1.00 20.00     0.152 A 
HETATM    2  C15 EHD  3335       0.176  33.956 232.956  1.00 20.00     0.026 A 
HETATM    3  C19 EHD  3335      -0.402  33.338 231.723  1.00 20.00     0.214 C 
HETATM    4  O22 EHD  3335       0.324  32.105 231.435  1.00 20.00    -0.353 OA
HETATM    5  C20 EHD  3335       0.759  31.224 232.446  1.00 20.00     0.296 C 
HETATM    6  C16 EHD  3335       0.607  33.083 234.038  1.00 20.00    -0.004 A 
HETATM    7  C17 EHD  3335       1.152  33.799 235.138  1.00 20.00     0.043 A 
HETATM    8  C21 EHD  3335       0.482  31.554 233.894  1.00 20.00     0.135 C 
HETATM    9  N12 EHD  3335       0.806  35.931 234.085  1.00 20.00    -0.321 N 
HETATM   10  C11 EHD  3335       0.967  37.366 234.224  1.00 20.00     0.172 A 
HETATM   11  C8  EHD  3335       1.613  37.455 235.569  1.00 20.00    -0.010 A 
HETATM   12  C7  EHD  3335       2.054  38.467 236.324  1.00 20.00     0.025 A 
HETATM   13  C6  EHD  3335       2.636  38.236 237.578  1.00 20.00    -0.009 A 
HETATM   14  C5  EHD  3335       2.754  36.866 238.036  1.00 20.00     0.043 A 
HETATM   15  N10 EHD  3335       2.292  35.729 237.261  1.00 20.00    -0.353 N 
ATOM     16  H10 EHD  3335       2.372  34.764 237.581  1.00  0.00     0.166 HD
HETATM   17  C9  EHD  3335       1.748  36.072 236.078  1.00 20.00     0.068 A 
HETATM   18  C13 EHD  3335       1.239  35.213 235.129  1.00 20.00     0.065 A 
HETATM   19  C1  EHD  3335       3.096  39.287 238.380  1.00 20.00     0.014 A 
HETATM   20  C2  EHD  3335       3.662  39.017 239.610  1.00 20.00     0.001 A 
HETATM   21  C3  EHD  3335       3.781  37.671 240.057  1.00 20.00     0.002 A 
HETATM   22  C4  EHD  3335       3.311  36.569 239.253  1.00 20.00     0.030 A 
ENDROOT
BRANCH   8  23
HETATM   23  C25 EHD  3335      -0.926  31.049 234.293  1.00 20.00     0.043 C 
HETATM   24  C31 EHD  3335      -1.179  30.981 235.842  1.00 20.00     0.009 C 
ENDBRANCH   8  23
BRANCH   8  25
HETATM   25  O24 EHD  3335       1.429  30.915 234.598  1.00 20.00    -0.380 OA
ATOM     26  H24 EHD  3335       1.992  30.399 234.035  1.00  0.00     0.211 HD
ENDBRANCH   8  25
BRANCH   5  27
HETATM   27  O23 EHD  3335       1.415  30.140 232.110  1.00 20.00    -0.368 OA
ATOM     28  H23 EHD  3335       2.232  30.223 231.633  1.00  0.00     0.212 HD
ENDBRANCH   5  27
BRANCH   1  29
HETATM   29  O18 EHD  3335      -0.146  36.043 231.914  1.00 20.00    -0.345 OA
ATOM     30  H18 EHD  3335       0.418  36.718 231.552  1.00  0.00     0.219 HD
ENDBRANCH   1  29
TORSDOF 4
ENDMDL
MODEL 9
REMARK VINA RESULT:      -6.8      4.172      6.754
REMARK  4 active torsions:
REMARK  status: ('A' for Active; 'I' for Inactive)
REMARK    1  A    between atoms: C14_3  and  O18_1 
REMARK    2  A    between atoms: C20_7  and  O23_8 
REMARK    3  A    between atoms: C21_12  and  C25_15 
REMARK    4  A    between atoms: C21_12  and  O24_13 
ROOT
HETATM    1  C14 EHD  3335      -3.174  41.099 228.543  1.00 20.00     0.152 A 
HETATM    2  C15 EHD  3335      -1.928  41.622 228.642  1.00 20.00     0.026 A 
HETATM    3  C19 EHD  3335      -1.015  40.990 229.645  1.00 20.00     0.214 C 
HETATM    4  O22 EHD  3335       0.334  40.954 229.089  1.00 20.00    -0.353 OA
HETATM    5  C20 EHD  3335       0.868  42.005 228.317  1.00 20.00     0.296 C 
HETATM    6  C16 EHD  3335      -1.426  42.733 227.846  1.00 20.00    -0.004 A 
HETATM    7  C17 EHD  3335      -2.389  43.225 226.923  1.00 20.00     0.043 A 
HETATM    8  C21 EHD  3335       0.022  43.224 228.030  1.00 20.00     0.135 C 
HETATM    9  N12 EHD  3335      -4.054  41.640 227.619  1.00 20.00    -0.321 N 
HETATM   10  C11 EHD  3335      -5.409  41.167 227.405  1.00 20.00     0.172 A 
HETATM   11  C8  EHD  3335      -5.859  42.070 226.303  1.00 20.00    -0.010 A 
HETATM   12  C7  EHD  3335      -6.992  42.191 225.601  1.00 20.00     0.025 A 
HETATM   13  C6  EHD  3335      -7.124  43.158 224.596  1.00 20.00    -0.009 A 
HETATM   14  C5  EHD  3335      -5.993  44.025 224.327  1.00 20.00     0.043 A 
HETATM   15  N10 EHD  3335      -4.740  43.941 225.055  1.00 20.00    -0.353 N 
ATOM     16  H10 EHD  3335      -3.943  44.550 224.870  1.00  0.00     0.166 HD
HETATM   17  C9  EHD  3335      -4.731  42.980 225.999  1.00 20.00     0.068 A 
HETATM   18  C13 EHD  3335      -3.684  42.659 226.834  1.00 20.00     0.065 A 
HETATM   19  C1  EHD  3335      -8.306  43.297 223.860  1.00 20.00     0.014 A 
HETATM   20  C2  EHD  3335      -8.395  44.263 222.878  1.00 20.00     0.001 A 
HETATM   21  C3  EHD  3335      -7.283  45.112 222.612  1.00 20.00     0.002 A 
HETATM   22  C4  EHD  3335      -6.054  44.993 223.359  1.00 20.00     0.030 A 
ENDROOT
BRANCH   8  23
HETATM   23  C25 EHD  3335       0.146  44.240 229.191  1.00 20.00     0.043 C 
HETATM   24  C31 EHD  3335       0.925  45.555 228.825  1.00 20.00     0.009 C 
ENDBRANCH   8  23
BRANCH   8  25
HETATM   25  O24 EHD  3335       0.512  43.744 226.894  1.00 20.00    -0.380 OA
ATOM     26  H24 EHD  3335       1.397  43.442 226.726  1.00  0.00     0.211 HD
ENDBRANCH   8  25
BRANCH   5  27
HETATM   27  O23 EHD  3335       2.085  41.895 227.844  1.00 20.00    -0.368 OA
ATOM     28  H23 EHD  3335       2.526  41.056 227.889  1.00  0.00     0.212 HD
ENDBRANCH   5  27
BRANCH   1  29
HETATM   29  O18 EHD  3335      -3.552  40.054 229.311  1.00 20.00    -0.345 OA
ATOM     30  H18 EHD  3335      -3.651  40.162 230.251  1.00  0.00     0.219 HD
ENDBRANCH   1  29
TORSDOF 4
ENDMDL
