MODEL 1
REMARK VINA RESULT:      -6.5      0.000      0.000
REMARK  6 active torsions:
REMARK  status: ('A' for Active; 'I' for Inactive)
REMARK    1  A    between atoms: N1_1  and  S1_4 
REMARK    2  A    between atoms: C1_7  and  S1_4 
REMARK    3  A    between atoms: C4_11  and  N2_12 
REMARK    4  A    between atoms: C5_14  and  N2_12 
REMARK    5  A    between atoms: C5_14  and  C6_15 
REMARK    6  A    between atoms: C10_20  and  C12_22 
ROOT
HETATM    1  C1  FUN  3723      -3.965  41.979 226.562  1.00 20.00     0.102 A 
HETATM    2  C2  FUN  3723      -3.269  42.587 225.510  1.00 20.00     0.059 A 
HETATM    3 CL1  FUN  3723      -4.084  42.939 224.006  1.00 20.00    -0.083 Cl
HETATM    4  C3  FUN  3723      -1.925  42.976 225.584  1.00 20.00     0.055 A 
HETATM    5  C4  FUN  3723      -1.267  42.817 226.799  1.00 20.00     0.047 A 
HETATM    6  C10 FUN  3723      -1.948  42.176 227.846  1.00 20.00     0.068 A 
HETATM    7  C11 FUN  3723      -3.272  41.756 227.754  1.00 20.00     0.047 A 
ENDROOT
BRANCH   5   8
HETATM    8  N2  FUN  3723       0.089  43.160 226.960  1.00 20.00    -0.383 N 
ATOM      9  H2  FUN  3723       0.816  42.587 226.531  1.00  0.00     0.160 HD
BRANCH   8  10
HETATM   10  C5  FUN  3723       0.454  44.345 227.747  1.00 20.00     0.185 C 
BRANCH  10  11
HETATM   11  C6  FUN  3723       1.727  44.060 228.496  1.00 20.00     0.070 A 
HETATM   12  C7  FUN  3723       2.373  42.895 228.500  1.00 20.00     0.036 A 
HETATM   13  C8  FUN  3723       3.519  43.185 229.366  1.00 20.00     0.027 A 
HETATM   14  C9  FUN  3723       3.343  44.469 229.687  1.00 20.00     0.142 A 
HETATM   15  O3  FUN  3723       2.224  45.056 229.241  1.00 20.00    -0.325 OA
ENDBRANCH  10  11
ENDBRANCH   8  10
ENDBRANCH   5   8
BRANCH   6  16
HETATM   16  C12 FUN  3723      -1.294  41.938 229.190  1.00 20.00     0.211 C 
HETATM   17  O4  FUN  3723      -1.556  42.659 230.123  1.00 20.00    -0.644 OA
HETATM   18  O5  FUN  3723      -0.451  40.930 229.301  1.00 20.00    -0.644 OA
ENDBRANCH   6  16
BRANCH   1  19
HETATM   19  S1  FUN  3723      -5.652  41.463 226.439  1.00 20.00     0.258 S 
HETATM   20  O1  FUN  3723      -5.688  40.430 225.380  1.00 20.00    -0.201 OA
HETATM   21  O2  FUN  3723      -6.502  42.612 226.228  1.00 20.00    -0.201 OA
BRANCH  19  22
HETATM   22  N1  FUN  3723      -5.960  40.780 227.711  1.00 20.00    -0.324 N 
ATOM     23  H12 FUN  3723      -5.644  39.851 227.990  1.00  0.00     0.169 HD
ATOM     24  H11 FUN  3723      -6.545  41.425 228.241  1.00  0.00     0.169 HD
ENDBRANCH  19  22
ENDBRANCH   1  19
TORSDOF 6
ENDMDL
MODEL 2
REMARK VINA RESULT:      -6.3      9.055     10.316
REMARK  6 active torsions:
REMARK  status: ('A' for Active; 'I' for Inactive)
REMARK    1  A    between atoms: N1_1  and  S1_4 
REMARK    2  A    between atoms: C1_7  and  S1_4 
REMARK    3  A    between atoms: C4_11  and  N2_12 
REMARK    4  A    between atoms: C5_14  and  N2_12 
REMARK    5  A    between atoms: C5_14  and  C6_15 
REMARK    6  A    between atoms: C10_20  and  C12_22 
ROOT
HETATM    1  C1  FUN  3723      -0.578  37.468 233.891  1.00 20.00     0.102 A 
HETATM    2  C2  FUN  3723       0.715  37.290 233.385  1.00 20.00     0.059 A 
HETATM    3 CL1  FUN  3723       0.947  36.739 231.743  1.00 20.00    -0.083 Cl
HETATM    4  C3  FUN  3723       1.882  37.556 234.112  1.00 20.00     0.055 A 
HETATM    5  C4  FUN  3723       1.747  38.102 235.383  1.00 20.00     0.047 A 
HETATM    6  C10 FUN  3723       0.455  38.250 235.910  1.00 20.00     0.068 A 
HETATM    7  C11 FUN  3723      -0.702  37.946 235.197  1.00 20.00     0.047 A 
ENDROOT
BRANCH   5   8
HETATM    8  N2  FUN  3723       2.863  38.382 236.195  1.00 20.00    -0.383 N 
ATOM      9  H2  FUN  3723       3.203  39.340 236.283  1.00  0.00     0.160 HD
BRANCH   8  10
HETATM   10  C5  FUN  3723       3.537  37.293 236.913  1.00 20.00     0.185 C 
BRANCH  10  11
HETATM   11  C6  FUN  3723       3.620  37.649 238.371  1.00 20.00     0.070 A 
HETATM   12  C7  FUN  3723       3.573  38.884 238.866  1.00 20.00     0.036 A 
HETATM   13  C8  FUN  3723       3.687  38.640 240.307  1.00 20.00     0.027 A 
HETATM   14  C9  FUN  3723       3.756  37.309 240.388  1.00 20.00     0.142 A 
HETATM   15  O3  FUN  3723       3.786  36.634 239.231  1.00 20.00    -0.325 OA
ENDBRANCH  10  11
ENDBRANCH   8  10
ENDBRANCH   5   8
BRANCH   6  16
HETATM   16  C12 FUN  3723       0.221  38.809 237.298  1.00 20.00     0.211 C 
HETATM   17  O4  FUN  3723      -0.266  38.110 238.154  1.00 20.00    -0.644 OA
HETATM   18  O5  FUN  3723       0.572  40.059 237.530  1.00 20.00    -0.644 OA
ENDBRANCH   6  16
BRANCH   1  19
HETATM   19  S1  FUN  3723      -2.041  37.092 232.970  1.00 20.00     0.258 S 
HETATM   20  O1  FUN  3723      -2.021  35.630 232.746  1.00 20.00    -0.201 OA
HETATM   21  O2  FUN  3723      -2.095  37.912 231.781  1.00 20.00    -0.201 OA
BRANCH  19  22
HETATM   22  N1  FUN  3723      -3.173  37.369 233.878  1.00 20.00    -0.324 N 
ATOM     23  H12 FUN  3723      -4.086  36.913 233.860  1.00  0.00     0.169 HD
ATOM     24  H11 FUN  3723      -2.850  38.097 234.514  1.00  0.00     0.169 HD
ENDBRANCH  19  22
ENDBRANCH   1  19
TORSDOF 6
ENDMDL
MODEL 3
REMARK VINA RESULT:      -6.0     12.085     13.775
REMARK  6 active torsions:
REMARK  status: ('A' for Active; 'I' for Inactive)
REMARK    1  A    between atoms: N1_1  and  S1_4 
REMARK    2  A    between atoms: C1_7  and  S1_4 
REMARK    3  A    between atoms: C4_11  and  N2_12 
REMARK    4  A    between atoms: C5_14  and  N2_12 
REMARK    5  A    between atoms: C5_14  and  C6_15 
REMARK    6  A    between atoms: C10_20  and  C12_22 
ROOT
HETATM    1  C1  FUN  3723       3.029  32.598 237.169  1.00 20.00     0.102 A 
HETATM    2  C2  FUN  3723       2.055  32.605 236.164  1.00 20.00     0.059 A 
HETATM    3 CL1  FUN  3723       1.366  31.102 235.599  1.00 20.00    -0.083 Cl
HETATM    4  C3  FUN  3723       1.550  33.770 235.573  1.00 20.00     0.055 A 
HETATM    5  C4  FUN  3723       1.987  34.993 236.068  1.00 20.00     0.047 A 
HETATM    6  C10 FUN  3723       2.989  34.994 237.051  1.00 20.00     0.068 A 
HETATM    7  C11 FUN  3723       3.516  33.831 237.607  1.00 20.00     0.047 A 
ENDROOT
BRANCH   5   8
HETATM    8  N2  FUN  3723       1.550  36.216 235.522  1.00 20.00    -0.383 N 
ATOM      9  H2  FUN  3723       2.137  36.716 234.854  1.00  0.00     0.160 HD
BRANCH   8  10
HETATM   10  C5  FUN  3723       0.247  36.767 235.917  1.00 20.00     0.185 C 
BRANCH  10  11
HETATM   11  C6  FUN  3723       0.472  37.981 236.776  1.00 20.00     0.070 A 
HETATM   12  C7  FUN  3723       0.011  38.143 238.015  1.00 20.00     0.036 A 
HETATM   13  C8  FUN  3723       0.527  39.472 238.360  1.00 20.00     0.027 A 
HETATM   14  C9  FUN  3723       1.211  39.827 237.270  1.00 20.00     0.142 A 
HETATM   15  O3  FUN  3723       1.167  38.987 236.228  1.00 20.00    -0.325 OA
ENDBRANCH  10  11
ENDBRANCH   8  10
ENDBRANCH   5   8
BRANCH   6  16
HETATM   16  C12 FUN  3723       3.541  36.283 237.622  1.00 20.00     0.211 C 
HETATM   17  O4  FUN  3723       3.601  36.433 238.819  1.00 20.00    -0.644 OA
HETATM   18  O5  FUN  3723       3.951  37.210 236.778  1.00 20.00    -0.644 OA
ENDBRANCH   6  16
BRANCH   1  19
HETATM   19  S1  FUN  3723       3.681  31.115 237.880  1.00 20.00     0.258 S 
HETATM   20  O1  FUN  3723       4.301  30.365 236.765  1.00 20.00    -0.201 OA
HETATM   21  O2  FUN  3723       2.642  30.422 238.606  1.00 20.00    -0.201 OA
BRANCH  19  22
HETATM   22  N1  FUN  3723       4.780  31.541 238.769  1.00 20.00    -0.324 N 
ATOM     23  H12 FUN  3723       5.768  31.604 238.521  1.00  0.00     0.169 HD
ATOM     24  H11 FUN  3723       4.346  31.755 239.667  1.00  0.00     0.169 HD
ENDBRANCH  19  22
ENDBRANCH   1  19
TORSDOF 6
ENDMDL
MODEL 4
REMARK VINA RESULT:      -5.7     10.784     12.882
REMARK  6 active torsions:
REMARK  status: ('A' for Active; 'I' for Inactive)
REMARK    1  A    between atoms: N1_1  and  S1_4 
REMARK    2  A    between atoms: C1_7  and  S1_4 
REMARK    3  A    between atoms: C4_11  and  N2_12 
REMARK    4  A    between atoms: C5_14  and  N2_12 
REMARK    5  A    between atoms: C5_14  and  C6_15 
REMARK    6  A    between atoms: C10_20  and  C12_22 
ROOT
HETATM    1  C1  FUN  3723       2.847  37.248 238.120  1.00 20.00     0.102 A 
HETATM    2  C2  FUN  3723       1.943  37.750 237.177  1.00 20.00     0.059 A 
HETATM    3 CL1  FUN  3723       1.500  39.440 237.199  1.00 20.00    -0.083 Cl
HETATM    4  C3  FUN  3723       1.365  36.979 236.160  1.00 20.00     0.055 A 
HETATM    5  C4  FUN  3723       1.773  35.656 236.035  1.00 20.00     0.047 A 
HETATM    6  C10 FUN  3723       2.651  35.136 236.998  1.00 20.00     0.068 A 
HETATM    7  C11 FUN  3723       3.192  35.897 238.031  1.00 20.00     0.047 A 
ENDROOT
BRANCH   5   8
HETATM    8  N2  FUN  3723       1.232  34.800 235.056  1.00 20.00    -0.383 N 
ATOM      9  H2  FUN  3723       1.711  33.933 234.814  1.00  0.00     0.160 HD
BRANCH   8  10
HETATM   10  C5  FUN  3723      -0.024  35.161 234.385  1.00 20.00     0.185 C 
BRANCH  10  11
HETATM   11  C6  FUN  3723       0.279  35.568 232.969  1.00 20.00     0.070 A 
HETATM   12  C7  FUN  3723       0.887  36.695 232.606  1.00 20.00     0.036 A 
HETATM   13  C8  FUN  3723       0.924  36.566 231.146  1.00 20.00     0.027 A 
HETATM   14  C9  FUN  3723       0.353  35.378 230.931  1.00 20.00     0.142 A 
HETATM   15  O3  FUN  3723      -0.129  34.735 232.002  1.00 20.00    -0.325 OA
ENDBRANCH  10  11
ENDBRANCH   8  10
ENDBRANCH   5   8
BRANCH   6  16
HETATM   16  C12 FUN  3723       3.121  33.698 236.951  1.00 20.00     0.211 C 
HETATM   17  O4  FUN  3723       3.211  33.060 237.973  1.00 20.00    -0.644 OA
HETATM   18  O5  FUN  3723       3.415  33.179 235.774  1.00 20.00    -0.644 OA
ENDBRANCH   6  16
BRANCH   1  19
HETATM   19  S1  FUN  3723       3.539  38.228 239.420  1.00 20.00     0.258 S 
HETATM   20  O1  FUN  3723       3.988  39.488 238.788  1.00 20.00    -0.201 OA
HETATM   21  O2  FUN  3723       4.558  37.472 240.113  1.00 20.00    -0.201 OA
BRANCH  19  22
HETATM   22  N1  FUN  3723       2.414  38.575 240.310  1.00 20.00    -0.324 N 
ATOM     23  H12 FUN  3723       1.983  37.964 241.004  1.00  0.00     0.169 HD
ATOM     24  H11 FUN  3723       2.166  39.538 240.086  1.00  0.00     0.169 HD
ENDBRANCH  19  22
ENDBRANCH   1  19
TORSDOF 6
ENDMDL
MODEL 5
REMARK VINA RESULT:      -5.5      3.418      5.135
REMARK  6 active torsions:
REMARK  status: ('A' for Active; 'I' for Inactive)
REMARK    1  A    between atoms: N1_1  and  S1_4 
REMARK    2  A    between atoms: C1_7  and  S1_4 
REMARK    3  A    between atoms: C4_11  and  N2_12 
REMARK    4  A    between atoms: C5_14  and  N2_12 
REMARK    5  A    between atoms: C5_14  and  C6_15 
REMARK    6  A    between atoms: C10_20  and  C12_22 
ROOT
HETATM    1  C1  FUN  3723      -3.996  41.941 227.208  1.00 20.00     0.102 A 
HETATM    2  C2  FUN  3723      -4.512  40.956 228.057  1.00 20.00     0.059 A 
HETATM    3 CL1  FUN  3723      -6.020  40.164 227.669  1.00 20.00    -0.083 Cl
HETATM    4  C3  FUN  3723      -3.875  40.520 229.227  1.00 20.00     0.055 A 
HETATM    5  C4  FUN  3723      -2.620  41.042 229.517  1.00 20.00     0.047 A 
HETATM    6  C10 FUN  3723      -2.112  42.055 228.689  1.00 20.00     0.068 A 
HETATM    7  C11 FUN  3723      -2.768  42.513 227.549  1.00 20.00     0.047 A 
ENDROOT
BRANCH   5   8
HETATM    8  N2  FUN  3723      -1.914  40.678 230.680  1.00 20.00    -0.383 N 
ATOM      9  H2  FUN  3723      -1.724  41.374 231.402  1.00  0.00     0.160 HD
BRANCH   8  10
HETATM   10  C5  FUN  3723      -1.453  39.294 230.852  1.00 20.00     0.185 C 
BRANCH  10  11
HETATM   11  C6  FUN  3723      -2.042  38.738 232.119  1.00 20.00     0.070 A 
HETATM   12  C7  FUN  3723      -3.340  38.695 232.411  1.00 20.00     0.036 A 
HETATM   13  C8  FUN  3723      -3.335  38.062 233.733  1.00 20.00     0.027 A 
HETATM   14  C9  FUN  3723      -2.039  37.831 233.957  1.00 20.00     0.142 A 
HETATM   15  O3  FUN  3723      -1.177  38.281 233.035  1.00 20.00    -0.325 OA
ENDBRANCH  10  11
ENDBRANCH   8  10
ENDBRANCH   5   8
BRANCH   6  16
HETATM   16  C12 FUN  3723      -0.766  42.696 228.953  1.00 20.00     0.211 C 
HETATM   17  O4  FUN  3723      -0.552  43.231 230.014  1.00 20.00    -0.644 OA
HETATM   18  O5  FUN  3723       0.145  42.641 228.000  1.00 20.00    -0.644 OA
ENDBRANCH   6  16
BRANCH   1  19
HETATM   19  S1  FUN  3723      -4.831  42.505 225.754  1.00 20.00     0.258 S 
HETATM   20  O1  FUN  3723      -6.122  43.064 226.214  1.00 20.00    -0.201 OA
HETATM   21  O2  FUN  3723      -4.915  41.432 224.790  1.00 20.00    -0.201 OA
BRANCH  19  22
HETATM   22  N1  FUN  3723      -4.035  43.639 225.243  1.00 20.00    -0.324 N 
ATOM     23  H12 FUN  3723      -3.692  44.431 225.788  1.00  0.00     0.169 HD
ATOM     24  H11 FUN  3723      -3.902  43.462 224.248  1.00  0.00     0.169 HD
ENDBRANCH  19  22
ENDBRANCH   1  19
TORSDOF 6
ENDMDL
MODEL 6
REMARK VINA RESULT:      -5.5     10.323     12.468
REMARK  6 active torsions:
REMARK  status: ('A' for Active; 'I' for Inactive)
REMARK    1  A    between atoms: N1_1  and  S1_4 
REMARK    2  A    between atoms: C1_7  and  S1_4 
REMARK    3  A    between atoms: C4_11  and  N2_12 
REMARK    4  A    between atoms: C5_14  and  N2_12 
REMARK    5  A    between atoms: C5_14  and  C6_15 
REMARK    6  A    between atoms: C10_20  and  C12_22 
ROOT
HETATM    1  C1  FUN  3723       1.927  37.410 238.088  1.00 20.00     0.102 A 
HETATM    2  C2  FUN  3723       0.723  38.062 237.799  1.00 20.00     0.059 A 
HETATM    3 CL1  FUN  3723       0.428  39.672 238.409  1.00 20.00    -0.083 Cl
HETATM    4  C3  FUN  3723      -0.292  37.512 237.005  1.00 20.00     0.055 A 
HETATM    5  C4  FUN  3723      -0.055  36.280 236.406  1.00 20.00     0.047 A 
HETATM    6  C10 FUN  3723       1.135  35.605 236.720  1.00 20.00     0.068 A 
HETATM    7  C11 FUN  3723       2.123  36.139 237.543  1.00 20.00     0.047 A 
ENDROOT
BRANCH   5   8
HETATM    8  N2  FUN  3723      -1.025  35.642 235.609  1.00 20.00    -0.383 N 
ATOM      9  H2  FUN  3723      -1.328  34.694 235.833  1.00  0.00     0.160 HD
BRANCH   8  10
HETATM   10  C5  FUN  3723      -1.599  36.346 234.455  1.00 20.00     0.185 C 
BRANCH  10  11
HETATM   11  C6  FUN  3723      -0.618  36.295 233.316  1.00 20.00     0.070 A 
HETATM   12  C7  FUN  3723       0.282  37.235 233.033  1.00 20.00     0.036 A 
HETATM   13  C8  FUN  3723       0.953  36.670 231.858  1.00 20.00     0.027 A 
HETATM   14  C9  FUN  3723       0.337  35.498 231.688  1.00 20.00     0.142 A 
HETATM   15  O3  FUN  3723      -0.687  35.228 232.508  1.00 20.00    -0.325 OA
ENDBRANCH  10  11
ENDBRANCH   8  10
ENDBRANCH   5   8
BRANCH   6  16
HETATM   16  C12 FUN  3723       1.456  34.246 236.135  1.00 20.00     0.211 C 
HETATM   17  O4  FUN  3723       1.352  34.064 234.945  1.00 20.00    -0.644 OA
HETATM   18  O5  FUN  3723       1.852  33.294 236.957  1.00 20.00    -0.644 OA
ENDBRANCH   6  16
BRANCH   1  19
HETATM   19  S1  FUN  3723       3.183  38.104 239.123  1.00 20.00     0.258 S 
HETATM   20  O1  FUN  3723       3.657  39.323 238.431  1.00 20.00    -0.201 OA
HETATM   21  O2  FUN  3723       4.191  37.107 239.405  1.00 20.00    -0.201 OA
BRANCH  19  22
HETATM   22  N1  FUN  3723       2.496  38.551 240.351  1.00 20.00    -0.324 N 
ATOM     23  H12 FUN  3723       2.807  38.390 241.309  1.00  0.00     0.169 HD
ATOM     24  H11 FUN  3723       1.660  39.045 240.040  1.00  0.00     0.169 HD
ENDBRANCH  19  22
ENDBRANCH   1  19
TORSDOF 6
ENDMDL
MODEL 7
REMARK VINA RESULT:      -5.4      9.264     11.529
REMARK  6 active torsions:
REMARK  status: ('A' for Active; 'I' for Inactive)
REMARK    1  A    between atoms: N1_1  and  S1_4 
REMARK    2  A    between atoms: C1_7  and  S1_4 
REMARK    3  A    between atoms: C4_11  and  N2_12 
REMARK    4  A    between atoms: C5_14  and  N2_12 
REMARK    5  A    between atoms: C5_14  and  C6_15 
REMARK    6  A    between atoms: C10_20  and  C12_22 
ROOT
HETATM    1  C1  FUN  3723       2.059  36.943 237.221  1.00 20.00     0.102 A 
HETATM    2  C2  FUN  3723       1.446  38.190 237.386  1.00 20.00     0.059 A 
HETATM    3 CL1  FUN  3723       1.721  39.117 238.841  1.00 20.00    -0.083 Cl
HETATM    4  C3  FUN  3723       0.619  38.788 236.426  1.00 20.00     0.055 A 
HETATM    5  C4  FUN  3723       0.461  38.138 235.207  1.00 20.00     0.047 A 
HETATM    6  C10 FUN  3723       1.044  36.871 235.048  1.00 20.00     0.068 A 
HETATM    7  C11 FUN  3723       1.833  36.263 236.021  1.00 20.00     0.047 A 
ENDROOT
BRANCH   5   8
HETATM    8  N2  FUN  3723      -0.367  38.653 234.192  1.00 20.00    -0.383 N 
ATOM      9  H2  FUN  3723       0.033  39.225 233.447  1.00  0.00     0.160 HD
BRANCH   8  10
HETATM   10  C5  FUN  3723      -1.807  38.366 234.207  1.00 20.00     0.185 C 
BRANCH  10  11
HETATM   11  C6  FUN  3723      -2.385  38.698 232.859  1.00 20.00     0.070 A 
HETATM   12  C7  FUN  3723      -3.649  38.495 232.492  1.00 20.00     0.036 A 
HETATM   13  C8  FUN  3723      -3.651  38.997 231.115  1.00 20.00     0.027 A 
HETATM   14  C9  FUN  3723      -2.396  39.421 230.942  1.00 20.00     0.142 A 
HETATM   15  O3  FUN  3723      -1.542  39.208 231.951  1.00 20.00    -0.325 OA
ENDBRANCH  10  11
ENDBRANCH   8  10
ENDBRANCH   5   8
BRANCH   6  16
HETATM   16  C12 FUN  3723       0.895  36.084 233.763  1.00 20.00     0.211 C 
HETATM   17  O4  FUN  3723       0.553  34.926 233.803  1.00 20.00    -0.644 OA
HETATM   18  O5  FUN  3723       1.140  36.703 232.625  1.00 20.00    -0.644 OA
ENDBRANCH   6  16
BRANCH   1  19
HETATM   19  S1  FUN  3723       3.072  36.186 238.458  1.00 20.00     0.258 S 
HETATM   20  O1  FUN  3723       4.081  37.200 238.838  1.00 20.00    -0.201 OA
HETATM   21  O2  FUN  3723       3.593  34.932 237.965  1.00 20.00    -0.201 OA
BRANCH  19  22
HETATM   22  N1  FUN  3723       2.199  35.993 239.634  1.00 20.00    -0.324 N 
ATOM     23  H12 FUN  3723       2.151  35.158 240.219  1.00  0.00     0.169 HD
ATOM     24  H11 FUN  3723       1.666  36.856 239.732  1.00  0.00     0.169 HD
ENDBRANCH  19  22
ENDBRANCH   1  19
TORSDOF 6
ENDMDL
MODEL 8
REMARK VINA RESULT:      -5.3      8.749     10.862
REMARK  6 active torsions:
REMARK  status: ('A' for Active; 'I' for Inactive)
REMARK    1  A    between atoms: N1_1  and  S1_4 
REMARK    2  A    between atoms: C1_7  and  S1_4 
REMARK    3  A    between atoms: C4_11  and  N2_12 
REMARK    4  A    between atoms: C5_14  and  N2_12 
REMARK    5  A    between atoms: C5_14  and  C6_15 
REMARK    6  A    between atoms: C10_20  and  C12_22 
ROOT
HETATM    1  C1  FUN  3723       1.132  37.661 236.346  1.00 20.00     0.102 A 
HETATM    2  C2  FUN  3723       1.604  36.376 236.055  1.00 20.00     0.059 A 
HETATM    3 CL1  FUN  3723       2.954  35.714 236.945  1.00 20.00    -0.083 Cl
HETATM    4  C3  FUN  3723       1.038  35.536 235.087  1.00 20.00     0.055 A 
HETATM    5  C4  FUN  3723      -0.106  35.976 234.432  1.00 20.00     0.047 A 
HETATM    6  C10 FUN  3723      -0.564  37.277 234.693  1.00 20.00     0.068 A 
HETATM    7  C11 FUN  3723       0.026  38.123 235.628  1.00 20.00     0.047 A 
ENDROOT
BRANCH   5   8
HETATM    8  N2  FUN  3723      -0.731  35.209 233.430  1.00 20.00    -0.383 N 
ATOM      9  H2  FUN  3723      -1.709  34.936 233.530  1.00  0.00     0.160 HD
BRANCH   8  10
HETATM   10  C5  FUN  3723       0.029  34.803 232.240  1.00 20.00     0.185 C 
BRANCH  10  11
HETATM   11  C6  FUN  3723      -0.192  35.816 231.151  1.00 20.00     0.070 A 
HETATM   12  C7  FUN  3723       0.766  36.376 230.415  1.00 20.00     0.036 A 
HETATM   13  C8  FUN  3723      -0.004  37.255 229.530  1.00 20.00     0.027 A 
HETATM   14  C9  FUN  3723      -1.268  37.028 229.898  1.00 20.00     0.142 A 
HETATM   15  O3  FUN  3723      -1.457  36.203 230.936  1.00 20.00    -0.325 OA
ENDBRANCH  10  11
ENDBRANCH   8  10
ENDBRANCH   5   8
BRANCH   6  16
HETATM   16  C12 FUN  3723      -1.785  37.844 234.000  1.00 20.00     0.211 C 
HETATM   17  O4  FUN  3723      -1.680  38.822 233.300  1.00 20.00    -0.644 OA
HETATM   18  O5  FUN  3723      -2.941  37.234 234.182  1.00 20.00    -0.644 OA
ENDBRANCH   6  16
BRANCH   1  19
HETATM   19  S1  FUN  3723       1.881  38.722 237.547  1.00 20.00     0.258 S 
HETATM   20  O1  FUN  3723       1.202  40.031 237.417  1.00 20.00    -0.201 OA
HETATM   21  O2  FUN  3723       3.314  38.734 237.364  1.00 20.00    -0.201 OA
BRANCH  19  22
HETATM   22  N1  FUN  3723       1.501  38.174 238.865  1.00 20.00    -0.324 N 
ATOM     23  H12 FUN  3723       0.740  37.521 239.050  1.00  0.00     0.169 HD
ATOM     24  H11 FUN  3723       2.153  38.581 239.535  1.00  0.00     0.169 HD
ENDBRANCH  19  22
ENDBRANCH   1  19
TORSDOF 6
ENDMDL
MODEL 9
REMARK VINA RESULT:      -5.2     11.006     12.541
REMARK  6 active torsions:
REMARK  status: ('A' for Active; 'I' for Inactive)
REMARK    1  A    between atoms: N1_1  and  S1_4 
REMARK    2  A    between atoms: C1_7  and  S1_4 
REMARK    3  A    between atoms: C4_11  and  N2_12 
REMARK    4  A    between atoms: C5_14  and  N2_12 
REMARK    5  A    between atoms: C5_14  and  C6_15 
REMARK    6  A    between atoms: C10_20  and  C12_22 
ROOT
HETATM    1  C1  FUN  3723       1.799  33.694 235.605  1.00 20.00     0.102 A 
HETATM    2  C2  FUN  3723       2.212  34.181 236.850  1.00 20.00     0.059 A 
HETATM    3 CL1  FUN  3723       3.189  33.186 237.902  1.00 20.00    -0.083 Cl
HETATM    4  C3  FUN  3723       1.915  35.466 237.324  1.00 20.00     0.055 A 
HETATM    5  C4  FUN  3723       1.235  36.332 236.476  1.00 20.00     0.047 A 
HETATM    6  C10 FUN  3723       0.786  35.838 235.241  1.00 20.00     0.068 A 
HETATM    7  C11 FUN  3723       1.051  34.548 234.791  1.00 20.00     0.047 A 
ENDROOT
BRANCH   5   8
HETATM    8  N2  FUN  3723       0.875  37.634 236.875  1.00 20.00    -0.383 N 
ATOM      9  H2  FUN  3723      -0.075  37.828 237.190  1.00  0.00     0.160 HD
BRANCH   8  10
HETATM   10  C5  FUN  3723       1.873  38.711 236.836  1.00 20.00     0.185 C 
BRANCH  10  11
HETATM   11  C6  FUN  3723       2.637  38.714 238.131  1.00 20.00     0.070 A 
HETATM   12  C7  FUN  3723       3.944  38.940 238.253  1.00 20.00     0.036 A 
HETATM   13  C8  FUN  3723       4.138  38.830 239.702  1.00 20.00     0.027 A 
HETATM   14  C9  FUN  3723       2.908  38.584 240.158  1.00 20.00     0.142 A 
HETATM   15  O3  FUN  3723       1.942  38.433 239.242  1.00 20.00    -0.325 OA
ENDBRANCH  10  11
ENDBRANCH   8  10
ENDBRANCH   5   8
BRANCH   6  16
HETATM   16  C12 FUN  3723       0.014  36.708 234.271  1.00 20.00     0.211 C 
HETATM   17  O4  FUN  3723       0.504  37.007 233.209  1.00 20.00    -0.644 OA
HETATM   18  O5  FUN  3723      -1.193  37.108 234.623  1.00 20.00    -0.644 OA
ENDBRANCH   6  16
BRANCH   1  19
HETATM   19  S1  FUN  3723       2.153  32.057 235.037  1.00 20.00     0.258 S 
HETATM   20  O1  FUN  3723       1.558  31.139 236.034  1.00 20.00    -0.201 OA
HETATM   21  O2  FUN  3723       3.573  31.912 234.815  1.00 20.00    -0.201 OA
BRANCH  19  22
HETATM   22  N1  FUN  3723       1.383  31.886 233.788  1.00 20.00    -0.324 N 
ATOM     23  H12 FUN  3723       1.435  31.090 233.152  1.00  0.00     0.169 HD
ATOM     24  H11 FUN  3723       0.801  32.718 233.702  1.00  0.00     0.169 HD
ENDBRANCH  19  22
ENDBRANCH   1  19
TORSDOF 6
ENDMDL
