MODEL 1
REMARK VINA RESULT:      -6.7      0.000      0.000
REMARK  10 active torsions:
REMARK  status: ('A' for Active; 'I' for Inactive)
REMARK    1  A    between atoms: C10_9  and  O6_51 
REMARK    2  A    between atoms: C13_12  and  O7_53 
REMARK    3  A    between atoms: C15_14  and  O8_54 
REMARK    4  A    between atoms: C21_20  and  C38_37 
REMARK    5  A    between atoms: C24_23  and  O10_56 
REMARK    6  A    between atoms: C26_25  and  C27_26 
REMARK    7  A    between atoms: C28_27  and  C29_28 
REMARK    8  A    between atoms: C31_30  and  O11_58 
REMARK    9  A    between atoms: C32_31  and  O12_59 
REMARK   10  A    between atoms: C38_37  and  C39_38 
ROOT
HETATM    1  C1  FK5  3575      -0.934  37.694 230.208  1.00 20.00     0.282 C 
HETATM    2  C2  FK5  3575      -0.836  36.774 231.395  1.00 20.00     0.187 C 
HETATM    3  C3  FK5  3575       0.481  37.052 232.136  1.00 20.00     0.035 C 
HETATM    4  C4  FK5  3575       0.566  36.112 233.342  1.00 20.00     0.004 C 
HETATM    5  C5  FK5  3575       0.588  34.665 232.844  1.00 20.00     0.020 C 
HETATM    6  C6  FK5  3575      -0.711  34.369 232.086  1.00 20.00     0.127 C 
HETATM    7  C8  FK5  3575      -1.014  34.975 229.724  1.00 20.00     0.296 C 
HETATM    8  C9  FK5  3575      -1.332  33.565 229.351  1.00 20.00     0.278 C 
HETATM    9  C10 FK5  3575      -1.238  33.144 227.901  1.00 20.00     0.238 C 
HETATM   10  C11 FK5  3575      -0.836  31.671 227.822  1.00 20.00     0.055 C 
HETATM   11  C12 FK5  3575      -0.760  31.264 226.343  1.00 20.00     0.044 C 
HETATM   12  C13 FK5  3575      -2.112  31.581 225.691  1.00 20.00     0.153 C 
HETATM   13  C14 FK5  3575      -2.432  33.063 225.904  1.00 20.00     0.183 C 
HETATM   14  C15 FK5  3575      -3.799  33.368 225.275  1.00 20.00     0.152 C 
HETATM   15  C16 FK5  3575      -3.984  34.866 225.126  1.00 20.00     0.039 C 
HETATM   16  C17 FK5  3575      -3.675  35.449 223.760  1.00 20.00    -0.012 C 
HETATM   17  C18 FK5  3575      -4.749  36.486 223.404  1.00 20.00     0.037 C 
HETATM   18  C19 FK5  3575      -4.142  37.862 223.295  1.00 20.00    -0.086 C 
HETATM   19  C20 FK5  3575      -4.529  38.798 224.124  1.00 20.00    -0.012 C 
HETATM   20  C21 FK5  3575      -3.991  40.197 224.083  1.00 20.00     0.081 C 
HETATM   21  C22 FK5  3575      -4.249  40.877 225.408  1.00 20.00     0.137 C 
HETATM   22  C23 FK5  3575      -3.296  40.687 226.561  1.00 20.00     0.111 C 
HETATM   23  C24 FK5  3575      -4.077  40.769 227.871  1.00 20.00     0.131 C 
HETATM   24  C25 FK5  3575      -3.757  39.618 228.807  1.00 20.00     0.044 C 
HETATM   25  C26 FK5  3575      -2.263  39.313 228.920  1.00 20.00     0.166 C 
HETATM   26  C35 FK5  3575       0.543  31.470 228.461  1.00 20.00     0.016 C 
HETATM   27  C36 FK5  3575      -3.621  34.409 222.648  1.00 20.00     0.010 C 
HETATM   28  C37 FK5  3575      -3.109  38.128 222.231  1.00 20.00     0.043 C 
HETATM   29  C41 FK5  3575      -4.488  38.353 228.338  1.00 20.00     0.015 C 
HETATM   30  N7  FK5  3575      -0.854  35.358 231.000  1.00 20.00    -0.331 N 
HETATM   31  O1  FK5  3575      -2.107  38.257 229.906  1.00 20.00    -0.309 OA
HETATM   32  O2  FK5  3575       0.054  37.933 229.551  1.00 20.00    -0.263 OA
HETATM   33  O3  FK5  3575      -0.936  35.791 228.823  1.00 20.00    -0.264 OA
HETATM   34  O4  FK5  3575      -1.678  32.760 230.175  1.00 20.00    -0.281 OA
HETATM   35  O5  FK5  3575      -2.506  33.351 227.293  1.00 20.00    -0.338 OA
HETATM   36  O9  FK5  3575      -5.225  41.576 225.539  1.00 20.00    -0.297 OA
ENDROOT
BRANCH  25  37
HETATM   37  C27 FK5  3575      -1.515  40.532 229.394  1.00 20.00    -0.058 C 
HETATM   38  C28 FK5  3575      -0.676  41.138 228.593  1.00 20.00    -0.017 C 
HETATM   39  C42 FK5  3575      -1.732  41.054 230.791  1.00 20.00     0.046 C 
BRANCH  38  40
HETATM   40  C29 FK5  3575      -0.051  42.446 229.005  1.00 20.00     0.011 C 
HETATM   41  C34 FK5  3575      -0.505  43.552 228.049  1.00 20.00     0.011 C 
HETATM   42  C33 FK5  3575       0.130  44.879 228.467  1.00 20.00     0.035 C 
HETATM   43  C32 FK5  3575       1.653  44.755 228.415  1.00 20.00     0.147 C 
HETATM   44  C31 FK5  3575       2.108  43.650 229.371  1.00 20.00     0.150 C 
HETATM   45  C30 FK5  3575       1.473  42.321 228.952  1.00 20.00     0.043 C 
BRANCH  43  46
HETATM   46  O12 FK5  3575       2.246  45.995 228.806  1.00 20.00    -0.393 OA
ATOM     47  H12 FK5  3575       1.617  46.697 228.689  1.00  0.00     0.210 HD
ENDBRANCH  43  46
BRANCH  44  48
HETATM   48  O11 FK5  3575       3.531  43.533 229.322  1.00 20.00    -0.388 OA
HETATM   49  C45 FK5  3575       4.014  43.826 230.634  1.00 20.00     0.202 C 
ENDBRANCH  44  48
ENDBRANCH  38  40
ENDBRANCH  25  37
BRANCH  23  50
HETATM   50  O10 FK5  3575      -3.853  42.026 228.505  1.00 20.00    -0.395 OA
ATOM     51  H10 FK5  3575      -3.621  41.901 229.418  1.00  0.00     0.210 HD
ENDBRANCH  23  50
BRANCH  20  52
HETATM   52  C38 FK5  3575      -4.708  40.995 222.988  1.00 20.00     0.042 C 
BRANCH  52  53
HETATM   53  C39 FK5  3575      -3.792  42.074 222.471  1.00 20.00    -0.036 C 
HETATM   54  C40 FK5  3575      -2.768  41.758 221.718  1.00 20.00     0.007 C 
ENDBRANCH  52  53
ENDBRANCH  20  52
BRANCH   9  55
HETATM   55  O6  FK5  3575      -0.243  33.936 227.246  1.00 20.00    -0.359 OA
ATOM     56  H6  FK5  3575       0.224  34.450 227.895  1.00  0.00     0.213 HD
ENDBRANCH   9  55
BRANCH  12  57
HETATM   57  O7  FK5  3575      -2.048  31.301 224.292  1.00 20.00    -0.388 OA
HETATM   58  C43 FK5  3575      -0.768  31.747 223.839  1.00 20.00     0.202 C 
ENDBRANCH  12  57
BRANCH  14  59
HETATM   59  O8  FK5  3575      -4.806  32.884 226.189  1.00 20.00    -0.388 OA
HETATM   60  C44 FK5  3575      -5.898  33.803 226.126  1.00 20.00     0.202 C 
ENDBRANCH  14  59
TORSDOF 10
ENDMDL
MODEL 2
REMARK VINA RESULT:      -6.4      1.392      1.575
REMARK  10 active torsions:
REMARK  status: ('A' for Active; 'I' for Inactive)
REMARK    1  A    between atoms: C10_9  and  O6_51 
REMARK    2  A    between atoms: C13_12  and  O7_53 
REMARK    3  A    between atoms: C15_14  and  O8_54 
REMARK    4  A    between atoms: C21_20  and  C38_37 
REMARK    5  A    between atoms: C24_23  and  O10_56 
REMARK    6  A    between atoms: C26_25  and  C27_26 
REMARK    7  A    between atoms: C28_27  and  C29_28 
REMARK    8  A    between atoms: C31_30  and  O11_58 
REMARK    9  A    between atoms: C32_31  and  O12_59 
REMARK   10  A    between atoms: C38_37  and  C39_38 
ROOT
HETATM    1  C1  FK5  3575      -2.110  38.637 230.593  1.00 20.00     0.282 C 
HETATM    2  C2  FK5  3575      -2.234  38.018 231.960  1.00 20.00     0.187 C 
HETATM    3  C3  FK5  3575      -1.113  38.563 232.859  1.00 20.00     0.035 C 
HETATM    4  C4  FK5  3575      -1.253  37.928 234.246  1.00 20.00     0.004 C 
HETATM    5  C5  FK5  3575      -1.078  36.413 234.118  1.00 20.00     0.020 C 
HETATM    6  C6  FK5  3575      -2.177  35.848 233.211  1.00 20.00     0.127 C 
HETATM    7  C8  FK5  3575      -1.993  35.882 230.761  1.00 20.00     0.296 C 
HETATM    8  C9  FK5  3575      -2.178  34.403 230.677  1.00 20.00     0.278 C 
HETATM    9  C10 FK5  3575      -1.765  33.676 229.415  1.00 20.00     0.238 C 
HETATM   10  C11 FK5  3575      -1.307  32.261 229.769  1.00 20.00     0.055 C 
HETATM   11  C12 FK5  3575      -0.905  31.540 228.473  1.00 20.00     0.044 C 
HETATM   12  C13 FK5  3575      -2.100  31.590 227.511  1.00 20.00     0.153 C 
HETATM   13  C14 FK5  3575      -2.507  33.051 227.299  1.00 20.00     0.183 C 
HETATM   14  C15 FK5  3575      -3.719  33.094 226.358  1.00 20.00     0.152 C 
HETATM   15  C16 FK5  3575      -3.919  34.500 225.825  1.00 20.00     0.039 C 
HETATM   16  C17 FK5  3575      -3.348  34.784 224.450  1.00 20.00    -0.012 C 
HETATM   17  C18 FK5  3575      -4.357  35.623 223.653  1.00 20.00     0.037 C 
HETATM   18  C19 FK5  3575      -3.788  36.985 223.343  1.00 20.00    -0.086 C 
HETATM   19  C20 FK5  3575      -4.373  38.048 223.834  1.00 20.00    -0.012 C 
HETATM   20  C21 FK5  3575      -3.885  39.441 223.570  1.00 20.00     0.081 C 
HETATM   21  C22 FK5  3575      -4.440  40.378 224.619  1.00 20.00     0.137 C 
HETATM   22  C23 FK5  3575      -3.747  40.530 225.949  1.00 20.00     0.111 C 
HETATM   23  C24 FK5  3575      -4.790  40.840 227.022  1.00 20.00     0.131 C 
HETATM   24  C25 FK5  3575      -4.636  39.959 228.247  1.00 20.00     0.044 C 
HETATM   25  C26 FK5  3575      -3.191  39.810 228.723  1.00 20.00     0.166 C 
HETATM   26  C35 FK5  3575      -0.088  32.323 230.697  1.00 20.00     0.016 C 
HETATM   27  C36 FK5  3575      -3.026  33.529 223.648  1.00 20.00     0.010 C 
HETATM   28  C37 FK5  3575      -2.563  37.089 222.473  1.00 20.00     0.043 C 
HETATM   29  C41 FK5  3575      -5.208  38.565 227.956  1.00 20.00     0.015 C 
HETATM   30  N7  FK5  3575      -2.120  36.553 231.915  1.00 20.00    -0.331 N 
HETATM   31  O1  FK5  3575      -3.211  39.019 229.941  1.00 20.00    -0.309 OA
HETATM   32  O2  FK5  3575      -1.014  38.803 230.107  1.00 20.00    -0.263 OA
HETATM   33  O3  FK5  3575      -1.755  36.478 229.727  1.00 20.00    -0.264 OA
HETATM   34  O4  FK5  3575      -2.663  33.778 231.582  1.00 20.00    -0.281 OA
HETATM   35  O5  FK5  3575      -2.883  33.637 228.537  1.00 20.00    -0.338 OA
HETATM   36  O9  FK5  3575      -5.446  41.006 224.385  1.00 20.00    -0.297 OA
ENDROOT
BRANCH  25  37
HETATM   37  C27 FK5  3575      -2.601  41.162 229.033  1.00 20.00    -0.058 C 
HETATM   38  C28 FK5  3575      -1.505  41.552 228.433  1.00 20.00    -0.017 C 
HETATM   39  C42 FK5  3575      -3.273  42.066 230.034  1.00 20.00     0.046 C 
BRANCH  38  40
HETATM   40  C29 FK5  3575      -1.004  42.961 228.618  1.00 20.00     0.011 C 
HETATM   41  C34 FK5  3575      -0.338  43.440 227.326  1.00 20.00     0.011 C 
HETATM   42  C33 FK5  3575       0.170  44.870 227.514  1.00 20.00     0.035 C 
HETATM   43  C32 FK5  3575       1.189  44.904 228.654  1.00 20.00     0.147 C 
HETATM   44  C31 FK5  3575       0.523  44.426 229.947  1.00 20.00     0.150 C 
HETATM   45  C30 FK5  3575       0.014  42.995 229.759  1.00 20.00     0.043 C 
BRANCH  43  46
HETATM   46  O12 FK5  3575       1.663  46.240 228.830  1.00 20.00    -0.393 OA
ATOM     47  H12 FK5  3575       0.923  46.827 228.937  1.00  0.00     0.210 HD
ENDBRANCH  43  46
BRANCH  44  48
HETATM   48  O11 FK5  3575       1.475  44.457 231.012  1.00 20.00    -0.388 OA
HETATM   49  C45 FK5  3575       2.653  43.808 230.532  1.00 20.00     0.202 C 
ENDBRANCH  44  48
ENDBRANCH  38  40
ENDBRANCH  25  37
BRANCH  23  50
HETATM   50  O10 FK5  3575      -4.747  42.222 227.371  1.00 20.00    -0.395 OA
ATOM     51  H10 FK5  3575      -5.413  42.704 226.895  1.00  0.00     0.210 HD
ENDBRANCH  23  50
BRANCH  20  52
HETATM   52  C38 FK5  3575      -4.382  39.911 222.198  1.00 20.00     0.042 C 
BRANCH  52  53
HETATM   53  C39 FK5  3575      -3.250  40.572 221.453  1.00 20.00    -0.036 C 
HETATM   54  C40 FK5  3575      -2.824  41.753 221.825  1.00 20.00     0.007 C 
ENDBRANCH  52  53
ENDBRANCH  20  52
BRANCH   9  55
HETATM   55  O6  FK5  3575      -0.682  34.380 228.802  1.00 20.00    -0.359 OA
ATOM     56  H6  FK5  3575      -0.599  35.237 229.203  1.00  0.00     0.213 HD
ENDBRANCH   9  55
BRANCH  12  57
HETATM   57  O7  FK5  3575      -1.731  31.010 226.259  1.00 20.00    -0.388 OA
HETATM   58  C43 FK5  3575      -0.395  31.435 225.982  1.00 20.00     0.202 C 
ENDBRANCH  12  57
BRANCH  14  59
HETATM   59  O8  FK5  3575      -4.880  32.746 227.144  1.00 20.00    -0.388 OA
HETATM   60  C44 FK5  3575      -5.974  33.502 226.621  1.00 20.00     0.202 C 
ENDBRANCH  14  59
TORSDOF 10
ENDMDL
MODEL 3
REMARK VINA RESULT:      -6.3      2.790      8.373
REMARK  10 active torsions:
REMARK  status: ('A' for Active; 'I' for Inactive)
REMARK    1  A    between atoms: C10_9  and  O6_51 
REMARK    2  A    between atoms: C13_12  and  O7_53 
REMARK    3  A    between atoms: C15_14  and  O8_54 
REMARK    4  A    between atoms: C21_20  and  C38_37 
REMARK    5  A    between atoms: C24_23  and  O10_56 
REMARK    6  A    between atoms: C26_25  and  C27_26 
REMARK    7  A    between atoms: C28_27  and  C29_28 
REMARK    8  A    between atoms: C31_30  and  O11_58 
REMARK    9  A    between atoms: C32_31  and  O12_59 
REMARK   10  A    between atoms: C38_37  and  C39_38 
ROOT
HETATM    1  C1  FK5  3575      -3.849  35.191 227.337  1.00 20.00     0.282 C 
HETATM    2  C2  FK5  3575      -4.961  34.194 227.149  1.00 20.00     0.187 C 
HETATM    3  C3  FK5  3575      -4.358  32.849 226.714  1.00 20.00     0.035 C 
HETATM    4  C4  FK5  3575      -5.499  31.843 226.530  1.00 20.00     0.004 C 
HETATM    5  C5  FK5  3575      -6.424  32.341 225.418  1.00 20.00     0.020 C 
HETATM    6  C6  FK5  3575      -7.026  33.692 225.823  1.00 20.00     0.127 C 
HETATM    7  C8  FK5  3575      -5.820  35.809 225.502  1.00 20.00     0.296 C 
HETATM    8  C9  FK5  3575      -6.937  36.379 224.691  1.00 20.00     0.278 C 
HETATM    9  C10 FK5  3575      -6.671  37.578 223.807  1.00 20.00     0.238 C 
HETATM   10  C11 FK5  3575      -7.583  37.521 222.582  1.00 20.00     0.055 C 
HETATM   11  C12 FK5  3575      -7.305  38.753 221.707  1.00 20.00     0.044 C 
HETATM   12  C13 FK5  3575      -7.497  40.004 222.574  1.00 20.00     0.153 C 
HETATM   13  C14 FK5  3575      -6.587  39.905 223.801  1.00 20.00     0.183 C 
HETATM   14  C15 FK5  3575      -6.803  41.146 224.678  1.00 20.00     0.152 C 
HETATM   15  C16 FK5  3575      -5.677  41.279 225.685  1.00 20.00     0.039 C 
HETATM   16  C17 FK5  3575      -4.555  42.230 225.316  1.00 20.00    -0.012 C 
HETATM   17  C18 FK5  3575      -4.158  43.040 226.558  1.00 20.00     0.037 C 
HETATM   18  C19 FK5  3575      -2.741  42.724 226.966  1.00 20.00    -0.086 C 
HETATM   19  C20 FK5  3575      -2.521  42.174 228.134  1.00 20.00    -0.012 C 
HETATM   20  C21 FK5  3575      -1.146  41.836 228.629  1.00 20.00     0.081 C 
HETATM   21  C22 FK5  3575      -1.246  40.814 229.738  1.00 20.00     0.137 C 
HETATM   22  C23 FK5  3575      -1.346  39.345 229.415  1.00 20.00     0.111 C 
HETATM   23  C24 FK5  3575      -2.169  38.651 230.499  1.00 20.00     0.131 C 
HETATM   24  C25 FK5  3575      -3.253  37.761 229.920  1.00 20.00     0.044 C 
HETATM   25  C26 FK5  3575      -2.779  36.888 228.759  1.00 20.00     0.166 C 
HETATM   26  C35 FK5  3575      -7.283  36.258 221.766  1.00 20.00     0.016 C 
HETATM   27  C36 FK5  3575      -4.917  43.204 224.202  1.00 20.00     0.010 C 
HETATM   28  C37 FK5  3575      -1.613  43.054 226.025  1.00 20.00     0.043 C 
HETATM   29  C41 FK5  3575      -4.429  38.625 229.444  1.00 20.00     0.015 C 
HETATM   30  N7  FK5  3575      -5.922  34.624 226.123  1.00 20.00    -0.331 N 
HETATM   31  O1  FK5  3575      -3.891  36.037 228.370  1.00 20.00    -0.309 OA
HETATM   32  O2  FK5  3575      -2.918  35.203 226.564  1.00 20.00    -0.263 OA
HETATM   33  O3  FK5  3575      -4.809  36.477 225.615  1.00 20.00    -0.264 OA
HETATM   34  O4  FK5  3575      -8.046  35.918 224.738  1.00 20.00    -0.281 OA
HETATM   35  O5  FK5  3575      -6.922  38.755 224.565  1.00 20.00    -0.338 OA
HETATM   36  O9  FK5  3575      -1.246  41.181 230.889  1.00 20.00    -0.297 OA
ENDROOT
BRANCH  25  37
HETATM   37  C27 FK5  3575      -1.632  36.014 229.197  1.00 20.00    -0.058 C 
HETATM   38  C28 FK5  3575      -1.825  35.080 230.093  1.00 20.00    -0.017 C 
HETATM   39  C42 FK5  3575      -0.261  36.216 228.603  1.00 20.00     0.046 C 
BRANCH  38  40
HETATM   40  C29 FK5  3575      -0.723  34.102 230.413  1.00 20.00     0.011 C 
HETATM   41  C34 FK5  3575      -0.871  32.861 229.531  1.00 20.00     0.011 C 
HETATM   42  C33 FK5  3575       0.247  31.869 229.856  1.00 20.00     0.035 C 
HETATM   43  C32 FK5  3575       0.156  31.461 231.327  1.00 20.00     0.147 C 
HETATM   44  C31 FK5  3575       0.303  32.702 232.210  1.00 20.00     0.150 C 
HETATM   45  C30 FK5  3575      -0.815  33.695 231.885  1.00 20.00     0.043 C 
BRANCH  43  46
HETATM   46  O12 FK5  3575       1.200  30.535 231.630  1.00 20.00    -0.393 OA
ATOM     47  H12 FK5  3575       1.231  30.389 232.568  1.00  0.00     0.210 HD
ENDBRANCH  43  46
BRANCH  44  48
HETATM   48  O11 FK5  3575       0.218  32.322 233.585  1.00 20.00    -0.388 OA
HETATM   49  C45 FK5  3575       0.908  33.323 234.334  1.00 20.00     0.202 C 
ENDBRANCH  44  48
ENDBRANCH  38  40
ENDBRANCH  25  37
BRANCH  23  50
HETATM   50  O10 FK5  3575      -1.317  37.920 231.378  1.00 20.00    -0.395 OA
ATOM     51  H10 FK5  3575      -1.352  36.992 231.177  1.00  0.00     0.210 HD
ENDBRANCH  23  50
BRANCH  20  52
HETATM   52  C38 FK5  3575      -0.477  43.093 229.196  1.00 20.00     0.042 C 
BRANCH  52  53
HETATM   53  C39 FK5  3575       1.007  43.033 228.938  1.00 20.00    -0.036 C 
HETATM   54  C40 FK5  3575       1.469  42.319 227.941  1.00 20.00     0.007 C 
ENDBRANCH  52  53
ENDBRANCH  20  52
BRANCH   9  55
HETATM   55  O6  FK5  3575      -5.308  37.551 223.377  1.00 20.00    -0.359 OA
ATOM     56  H6  FK5  3575      -5.239  37.025 222.589  1.00  0.00     0.213 HD
ENDBRANCH   9  55
BRANCH  12  57
HETATM   57  O7  FK5  3575      -7.156  41.167 221.818  1.00 20.00    -0.388 OA
HETATM   58  C43 FK5  3575      -5.924  40.882 221.152  1.00 20.00     0.202 C 
ENDBRANCH  12  57
BRANCH  14  59
HETATM   59  O8  FK5  3575      -8.032  40.941 225.409  1.00 20.00    -0.388 OA
HETATM   60  C44 FK5  3575      -8.713  42.197 225.433  1.00 20.00     0.202 C 
ENDBRANCH  14  59
TORSDOF 10
ENDMDL
MODEL 4
REMARK VINA RESULT:      -6.2      5.209     10.204
REMARK  10 active torsions:
REMARK  status: ('A' for Active; 'I' for Inactive)
REMARK    1  A    between atoms: C10_9  and  O6_51 
REMARK    2  A    between atoms: C13_12  and  O7_53 
REMARK    3  A    between atoms: C15_14  and  O8_54 
REMARK    4  A    between atoms: C21_20  and  C38_37 
REMARK    5  A    between atoms: C24_23  and  O10_56 
REMARK    6  A    between atoms: C26_25  and  C27_26 
REMARK    7  A    between atoms: C28_27  and  C29_28 
REMARK    8  A    between atoms: C31_30  and  O11_58 
REMARK    9  A    between atoms: C32_31  and  O12_59 
REMARK   10  A    between atoms: C38_37  and  C39_38 
ROOT
HETATM    1  C1  FK5  3575      -5.411  35.835 232.302  1.00 20.00     0.282 C 
HETATM    2  C2  FK5  3575      -6.432  34.938 231.655  1.00 20.00     0.187 C 
HETATM    3  C3  FK5  3575      -7.681  35.767 231.315  1.00 20.00     0.035 C 
HETATM    4  C4  FK5  3575      -8.709  34.843 230.654  1.00 20.00     0.004 C 
HETATM    5  C5  FK5  3575      -9.109  33.753 231.651  1.00 20.00     0.020 C 
HETATM    6  C6  FK5  3575      -7.874  32.922 232.019  1.00 20.00     0.127 C 
HETATM    7  C8  FK5  3575      -6.280  33.645 233.744  1.00 20.00     0.296 C 
HETATM    8  C9  FK5  3575      -6.460  32.377 234.511  1.00 20.00     0.278 C 
HETATM    9  C10 FK5  3575      -6.036  32.325 235.963  1.00 20.00     0.238 C 
HETATM   10  C11 FK5  3575      -6.937  31.352 236.723  1.00 20.00     0.055 C 
HETATM   11  C12 FK5  3575      -6.480  31.306 238.189  1.00 20.00     0.044 C 
HETATM   12  C13 FK5  3575      -4.993  30.930 238.212  1.00 20.00     0.153 C 
HETATM   13  C14 FK5  3575      -4.213  31.933 237.358  1.00 20.00     0.183 C 
HETATM   14  C15 FK5  3575      -2.730  31.537 237.362  1.00 20.00     0.152 C 
HETATM   15  C16 FK5  3575      -1.879  32.687 236.857  1.00 20.00     0.039 C 
HETATM   16  C17 FK5  3575      -1.234  33.560 237.915  1.00 20.00    -0.012 C 
HETATM   17  C18 FK5  3575       0.206  33.879 237.492  1.00 20.00     0.037 C 
HETATM   18  C19 FK5  3575       0.372  35.358 237.246  1.00 20.00    -0.086 C 
HETATM   19  C20 FK5  3575       0.684  35.774 236.044  1.00 20.00    -0.012 C 
HETATM   20  C21 FK5  3575       0.881  37.222 235.710  1.00 20.00     0.081 C 
HETATM   21  C22 FK5  3575       0.753  37.417 234.217  1.00 20.00     0.137 C 
HETATM   22  C23 FK5  3575      -0.604  37.594 233.584  1.00 20.00     0.111 C 
HETATM   23  C24 FK5  3575      -0.575  37.015 232.171  1.00 20.00     0.131 C 
HETATM   24  C25 FK5  3575      -1.749  36.093 231.901  1.00 20.00     0.044 C 
HETATM   25  C26 FK5  3575      -3.090  36.644 232.385  1.00 20.00     0.166 C 
HETATM   26  C35 FK5  3575      -8.390  31.839 236.674  1.00 20.00     0.016 C 
HETATM   27  C36 FK5  3575      -1.199  32.923 239.299  1.00 20.00     0.010 C 
HETATM   28  C37 FK5  3575       0.181  36.319 238.389  1.00 20.00     0.043 C 
HETATM   29  C41 FK5  3575      -1.502  34.733 232.567  1.00 20.00     0.015 C 
HETATM   30  N7  FK5  3575      -6.836  33.834 232.538  1.00 20.00    -0.331 N 
HETATM   31  O1  FK5  3575      -4.121  35.701 231.983  1.00 20.00    -0.309 OA
HETATM   32  O2  FK5  3575      -5.769  36.682 233.089  1.00 20.00    -0.263 OA
HETATM   33  O3  FK5  3575      -5.574  34.505 234.237  1.00 20.00    -0.264 OA
HETATM   34  O4  FK5  3575      -6.918  31.391 233.998  1.00 20.00    -0.281 OA
HETATM   35  O5  FK5  3575      -4.680  31.898 236.017  1.00 20.00    -0.338 OA
HETATM   36  O9  FK5  3575       1.746  37.432 233.530  1.00 20.00    -0.297 OA
ENDROOT
BRANCH  25  37
HETATM   37  C27 FK5  3575      -3.373  37.975 231.737  1.00 20.00    -0.058 C 
HETATM   38  C28 FK5  3575      -3.432  38.069 230.432  1.00 20.00    -0.017 C 
HETATM   39  C42 FK5  3575      -3.586  39.199 232.590  1.00 20.00     0.046 C 
BRANCH  38  40
HETATM   40  C29 FK5  3575      -3.873  39.359 229.788  1.00 20.00     0.011 C 
HETATM   41  C34 FK5  3575      -4.705  39.048 228.542  1.00 20.00     0.011 C 
HETATM   42  C33 FK5  3575      -5.151  40.357 227.889  1.00 20.00     0.035 C 
HETATM   43  C32 FK5  3575      -3.922  41.174 227.489  1.00 20.00     0.147 C 
HETATM   44  C31 FK5  3575      -3.090  41.485 228.735  1.00 20.00     0.150 C 
HETATM   45  C30 FK5  3575      -2.642  40.175 229.389  1.00 20.00     0.043 C 
BRANCH  43  46
HETATM   46  O12 FK5  3575      -4.340  42.396 226.879  1.00 20.00    -0.393 OA
ATOM     47  H12 FK5  3575      -3.632  42.744 226.350  1.00  0.00     0.210 HD
ENDBRANCH  43  46
BRANCH  44  48
HETATM   48  O11 FK5  3575      -1.941  42.248 228.362  1.00 20.00    -0.388 OA
HETATM   49  C45 FK5  3575      -1.119  42.353 229.526  1.00 20.00     0.202 C 
ENDBRANCH  44  48
ENDBRANCH  38  40
ENDBRANCH  25  37
BRANCH  23  50
HETATM   50  O10 FK5  3575      -0.509  38.063 231.206  1.00 20.00    -0.395 OA
ATOM     51  H10 FK5  3575      -0.578  38.909 231.632  1.00  0.00     0.210 HD
ENDBRANCH  23  50
BRANCH  20  52
HETATM   52  C38 FK5  3575       2.288  37.663 236.131  1.00 20.00     0.042 C 
BRANCH  52  53
HETATM   53  C39 FK5  3575       2.196  38.932 236.940  1.00 20.00    -0.036 C 
HETATM   54  C40 FK5  3575       1.036  39.516 237.111  1.00 20.00     0.007 C 
ENDBRANCH  52  53
ENDBRANCH  20  52
BRANCH   9  55
HETATM   55  O6  FK5  3575      -6.165  33.628 236.537  1.00 20.00    -0.359 OA
ATOM     56  H6  FK5  3575      -7.025  33.976 236.332  1.00  0.00     0.213 HD
ENDBRANCH   9  55
BRANCH  12  57
HETATM   57  O7  FK5  3575      -4.509  30.968 239.556  1.00 20.00    -0.388 OA
HETATM   58  C43 FK5  3575      -5.054  32.145 240.158  1.00 20.00     0.202 C 
ENDBRANCH  12  57
BRANCH  14  59
HETATM   59  O8  FK5  3575      -2.581  30.436 236.440  1.00 20.00    -0.388 OA
HETATM   60  C44 FK5  3575      -1.318  30.604 235.793  1.00 20.00     0.202 C 
ENDBRANCH  14  59
TORSDOF 10
ENDMDL
MODEL 5
REMARK VINA RESULT:      -6.1      3.713      8.744
REMARK  10 active torsions:
REMARK  status: ('A' for Active; 'I' for Inactive)
REMARK    1  A    between atoms: C10_9  and  O6_51 
REMARK    2  A    between atoms: C13_12  and  O7_53 
REMARK    3  A    between atoms: C15_14  and  O8_54 
REMARK    4  A    between atoms: C21_20  and  C38_37 
REMARK    5  A    between atoms: C24_23  and  O10_56 
REMARK    6  A    between atoms: C26_25  and  C27_26 
REMARK    7  A    between atoms: C28_27  and  C29_28 
REMARK    8  A    between atoms: C31_30  and  O11_58 
REMARK    9  A    between atoms: C32_31  and  O12_59 
REMARK   10  A    between atoms: C38_37  and  C39_38 
ROOT
HETATM    1  C1  FK5  3575      -2.095  40.585 229.608  1.00 20.00     0.282 C 
HETATM    2  C2  FK5  3575      -1.118  41.445 228.850  1.00 20.00     0.187 C 
HETATM    3  C3  FK5  3575      -0.546  42.508 229.801  1.00 20.00     0.035 C 
HETATM    4  C4  FK5  3575       0.447  43.373 229.019  1.00 20.00     0.004 C 
HETATM    5  C5  FK5  3575      -0.299  44.086 227.889  1.00 20.00     0.020 C 
HETATM    6  C6  FK5  3575      -0.893  43.044 226.934  1.00 20.00     0.127 C 
HETATM    7  C8  FK5  3575      -3.037  41.932 227.387  1.00 20.00     0.296 C 
HETATM    8  C9  FK5  3575      -3.603  42.382 226.080  1.00 20.00     0.278 C 
HETATM    9  C10 FK5  3575      -5.103  42.365 225.879  1.00 20.00     0.238 C 
HETATM   10  C11 FK5  3575      -5.501  43.491 224.925  1.00 20.00     0.055 C 
HETATM   11  C12 FK5  3575      -7.024  43.446 224.726  1.00 20.00     0.044 C 
HETATM   12  C13 FK5  3575      -7.398  42.043 224.231  1.00 20.00     0.153 C 
HETATM   13  C14 FK5  3575      -6.880  41.007 225.233  1.00 20.00     0.183 C 
HETATM   14  C15 FK5  3575      -7.233  39.604 224.719  1.00 20.00     0.152 C 
HETATM   15  C16 FK5  3575      -7.083  38.586 225.833  1.00 20.00     0.039 C 
HETATM   16  C17 FK5  3575      -8.354  38.199 226.565  1.00 20.00    -0.012 C 
HETATM   17  C18 FK5  3575      -8.355  36.682 226.799  1.00 20.00     0.037 C 
HETATM   18  C19 FK5  3575      -8.307  36.373 228.275  1.00 20.00    -0.086 C 
HETATM   19  C20 FK5  3575      -7.276  35.728 228.758  1.00 20.00    -0.012 C 
HETATM   20  C21 FK5  3575      -7.148  35.367 230.208  1.00 20.00     0.081 C 
HETATM   21  C22 FK5  3575      -5.699  35.080 230.531  1.00 20.00     0.137 C 
HETATM   22  C23 FK5  3575      -4.755  36.206 230.866  1.00 20.00     0.111 C 
HETATM   23  C24 FK5  3575      -3.349  35.832 230.400  1.00 20.00     0.131 C 
HETATM   24  C25 FK5  3575      -2.691  36.942 229.601  1.00 20.00     0.044 C 
HETATM   25  C26 FK5  3575      -2.860  38.330 230.218  1.00 20.00     0.166 C 
HETATM   26  C35 FK5  3575      -5.123  44.847 225.529  1.00 20.00     0.016 C 
HETATM   27  C36 FK5  3575      -9.629  38.572 225.819  1.00 20.00     0.010 C 
HETATM   28  C37 FK5  3575      -9.449  36.809 229.154  1.00 20.00     0.043 C 
HETATM   29  C41 FK5  3575      -3.263  36.959 228.177  1.00 20.00     0.015 C 
HETATM   30  N7  FK5  3575      -1.752  42.132 227.716  1.00 20.00    -0.331 N 
HETATM   31  O1  FK5  3575      -2.112  39.266 229.396  1.00 20.00    -0.309 OA
HETATM   32  O2  FK5  3575      -2.839  41.093 230.416  1.00 20.00    -0.263 OA
HETATM   33  O3  FK5  3575      -3.780  41.335 228.145  1.00 20.00    -0.264 OA
HETATM   34  O4  FK5  3575      -2.893  42.740 225.179  1.00 20.00    -0.281 OA
HETATM   35  O5  FK5  3575      -5.467  41.100 225.342  1.00 20.00    -0.338 OA
HETATM   36  O9  FK5  3575      -5.301  33.939 230.520  1.00 20.00    -0.297 OA
ENDROOT
BRANCH  25  37
HETATM   37  C27 FK5  3575      -2.294  38.352 231.615  1.00 20.00    -0.058 C 
HETATM   38  C28 FK5  3575      -1.078  37.920 231.836  1.00 20.00    -0.017 C 
HETATM   39  C42 FK5  3575      -3.128  38.872 232.757  1.00 20.00     0.046 C 
BRANCH  38  40
HETATM   40  C29 FK5  3575      -0.453  38.091 233.197  1.00 20.00     0.011 C 
HETATM   41  C34 FK5  3575       1.002  37.622 233.152  1.00 20.00     0.011 C 
HETATM   42  C33 FK5  3575       1.636  37.796 234.533  1.00 20.00     0.035 C 
HETATM   43  C32 FK5  3575       0.865  36.963 235.557  1.00 20.00     0.147 C 
HETATM   44  C31 FK5  3575      -0.591  37.432 235.603  1.00 20.00     0.150 C 
HETATM   45  C30 FK5  3575      -1.226  37.258 234.221  1.00 20.00     0.043 C 
BRANCH  43  46
HETATM   46  O12 FK5  3575       1.458  37.126 236.847  1.00 20.00    -0.393 OA
ATOM     47  H12 FK5  3575       2.334  36.760 236.841  1.00  0.00     0.210 HD
ENDBRANCH  43  46
BRANCH  44  48
HETATM   48  O11 FK5  3575      -1.312  36.653 236.560  1.00 20.00    -0.388 OA
HETATM   49  C45 FK5  3575      -2.559  36.307 235.954  1.00 20.00     0.202 C 
ENDBRANCH  44  48
ENDBRANCH  38  40
ENDBRANCH  25  37
BRANCH  23  50
HETATM   50  O10 FK5  3575      -2.542  35.451 231.513  1.00 20.00    -0.395 OA
ATOM     51  H10 FK5  3575      -1.781  34.964 231.219  1.00  0.00     0.210 HD
ENDBRANCH  23  50
BRANCH  20  52
HETATM   52  C38 FK5  3575      -7.963  34.101 230.500  1.00 20.00     0.042 C 
BRANCH  52  53
HETATM   53  C39 FK5  3575      -8.575  34.204 231.873  1.00 20.00    -0.036 C 
HETATM   54  C40 FK5  3575      -8.727  35.377 232.436  1.00 20.00     0.007 C 
ENDBRANCH  52  53
ENDBRANCH  20  52
BRANCH   9  55
HETATM   55  O6  FK5  3575      -5.748  42.569 227.139  1.00 20.00    -0.359 OA
ATOM     56  H6  FK5  3575      -6.550  42.061 227.165  1.00  0.00     0.213 HD
ENDBRANCH   9  55
BRANCH  12  57
HETATM   57  O7  FK5  3575      -8.819  41.935 224.123  1.00 20.00    -0.388 OA
HETATM   58  C43 FK5  3575      -9.371  42.581 225.273  1.00 20.00     0.202 C 
ENDBRANCH  12  57
BRANCH  14  59
HETATM   59  O8  FK5  3575      -6.278  39.277 223.686  1.00 20.00    -0.388 OA
HETATM   60  C44 FK5  3575      -5.984  37.885 223.821  1.00 20.00     0.202 C 
ENDBRANCH  14  59
TORSDOF 10
ENDMDL
MODEL 6
REMARK VINA RESULT:      -6.0      2.644      3.166
REMARK  10 active torsions:
REMARK  status: ('A' for Active; 'I' for Inactive)
REMARK    1  A    between atoms: C10_9  and  O6_51 
REMARK    2  A    between atoms: C13_12  and  O7_53 
REMARK    3  A    between atoms: C15_14  and  O8_54 
REMARK    4  A    between atoms: C21_20  and  C38_37 
REMARK    5  A    between atoms: C24_23  and  O10_56 
REMARK    6  A    between atoms: C26_25  and  C27_26 
REMARK    7  A    between atoms: C28_27  and  C29_28 
REMARK    8  A    between atoms: C31_30  and  O11_58 
REMARK    9  A    between atoms: C32_31  and  O12_59 
REMARK   10  A    between atoms: C38_37  and  C39_38 
ROOT
HETATM    1  C1  FK5  3575      -2.555  39.346 230.308  1.00 20.00     0.282 C 
HETATM    2  C2  FK5  3575      -2.922  38.930 231.708  1.00 20.00     0.187 C 
HETATM    3  C3  FK5  3575      -1.645  38.866 232.561  1.00 20.00     0.035 C 
HETATM    4  C4  FK5  3575      -2.032  38.445 233.982  1.00 20.00     0.004 C 
HETATM    5  C5  FK5  3575      -2.651  37.047 233.934  1.00 20.00     0.020 C 
HETATM    6  C6  FK5  3575      -3.920  37.081 233.073  1.00 20.00     0.127 C 
HETATM    7  C8  FK5  3575      -3.841  36.920 230.622  1.00 20.00     0.296 C 
HETATM    8  C9  FK5  3575      -4.750  35.736 230.621  1.00 20.00     0.278 C 
HETATM    9  C10 FK5  3575      -4.810  34.852 229.395  1.00 20.00     0.238 C 
HETATM   10  C11 FK5  3575      -5.116  33.415 229.817  1.00 20.00     0.055 C 
HETATM   11  C12 FK5  3575      -5.185  32.539 228.557  1.00 20.00     0.044 C 
HETATM   12  C13 FK5  3575      -6.227  33.149 227.610  1.00 20.00     0.153 C 
HETATM   13  C14 FK5  3575      -5.849  34.605 227.326  1.00 20.00     0.183 C 
HETATM   14  C15 FK5  3575      -6.909  35.219 226.401  1.00 20.00     0.152 C 
HETATM   15  C16 FK5  3575      -6.392  36.510 225.796  1.00 20.00     0.039 C 
HETATM   16  C17 FK5  3575      -5.810  36.412 224.399  1.00 20.00    -0.012 C 
HETATM   17  C18 FK5  3575      -6.288  37.613 223.572  1.00 20.00     0.037 C 
HETATM   18  C19 FK5  3575      -5.121  38.486 223.182  1.00 20.00    -0.086 C 
HETATM   19  C20 FK5  3575      -5.069  39.718 223.623  1.00 20.00    -0.012 C 
HETATM   20  C21 FK5  3575      -3.955  40.660 223.277  1.00 20.00     0.081 C 
HETATM   21  C22 FK5  3575      -3.920  41.789 224.281  1.00 20.00     0.137 C 
HETATM   22  C23 FK5  3575      -3.193  41.622 225.591  1.00 20.00     0.111 C 
HETATM   23  C24 FK5  3575      -3.893  42.459 226.661  1.00 20.00     0.131 C 
HETATM   24  C25 FK5  3575      -4.157  41.671 227.930  1.00 20.00     0.044 C 
HETATM   25  C26 FK5  3575      -2.968  40.830 228.392  1.00 20.00     0.166 C 
HETATM   26  C35 FK5  3575      -3.998  32.887 230.724  1.00 20.00     0.016 C 
HETATM   27  C36 FK5  3575      -6.197  35.136 223.662  1.00 20.00     0.010 C 
HETATM   28  C37 FK5  3575      -4.047  37.921 222.290  1.00 20.00     0.043 C 
HETATM   29  C41 FK5  3575      -5.366  40.749 227.721  1.00 20.00     0.015 C 
HETATM   30  N7  FK5  3575      -3.566  37.608 231.741  1.00 20.00    -0.331 N 
HETATM   31  O1  FK5  3575      -3.337  40.207 229.652  1.00 20.00    -0.309 OA
HETATM   32  O2  FK5  3575      -1.546  38.914 229.799  1.00 20.00    -0.263 OA
HETATM   33  O3  FK5  3575      -3.374  37.272 229.554  1.00 20.00    -0.264 OA
HETATM   34  O4  FK5  3575      -5.448  35.480 231.566  1.00 20.00    -0.281 OA
HETATM   35  O5  FK5  3575      -5.828  35.349 228.536  1.00 20.00    -0.338 OA
HETATM   36  O9  FK5  3575      -4.478  42.830 224.028  1.00 20.00    -0.297 OA
ENDROOT
BRANCH  25  37
HETATM   37  C27 FK5  3575      -1.765  41.708 228.621  1.00 20.00    -0.058 C 
HETATM   38  C28 FK5  3575      -0.757  41.670 227.785  1.00 20.00    -0.017 C 
HETATM   39  C42 FK5  3575      -1.720  42.630 229.812  1.00 20.00     0.046 C 
BRANCH  38  40
HETATM   40  C29 FK5  3575       0.372  42.659 227.919  1.00 20.00     0.011 C 
HETATM   41  C34 FK5  3575       1.576  41.974 228.569  1.00 20.00     0.011 C 
HETATM   42  C33 FK5  3575       2.721  42.978 228.704  1.00 20.00     0.035 C 
HETATM   43  C32 FK5  3575       2.272  44.151 229.577  1.00 20.00     0.147 C 
HETATM   44  C31 FK5  3575       1.067  44.836 228.927  1.00 20.00     0.150 C 
HETATM   45  C30 FK5  3575      -0.079  43.832 228.792  1.00 20.00     0.043 C 
BRANCH  43  46
HETATM   46  O12 FK5  3575       3.342  45.089 229.703  1.00 20.00    -0.393 OA
ATOM     47  H12 FK5  3575       4.172  44.627 229.676  1.00  0.00     0.210 HD
ENDBRANCH  43  46
BRANCH  44  48
HETATM   48  O11 FK5  3575       0.647  45.932 229.743  1.00 20.00    -0.388 OA
HETATM   49  C45 FK5  3575       0.987  47.126 229.036  1.00 20.00     0.202 C 
ENDBRANCH  44  48
ENDBRANCH  38  40
ENDBRANCH  25  37
BRANCH  23  50
HETATM   50  O10 FK5  3575      -3.145  43.642 226.934  1.00 20.00    -0.395 OA
ATOM     51  H10 FK5  3575      -3.533  44.119 227.658  1.00  0.00     0.210 HD
ENDBRANCH  23  50
BRANCH  20  52
HETATM   52  C38 FK5  3575      -4.199  41.262 221.888  1.00 20.00     0.042 C 
BRANCH  52  53
HETATM   53  C39 FK5  3575      -2.894  41.346 221.140  1.00 20.00    -0.036 C 
HETATM   54  C40 FK5  3575      -2.211  42.464 221.140  1.00 20.00     0.007 C 
ENDBRANCH  52  53
ENDBRANCH  20  52
BRANCH   9  55
HETATM   55  O6  FK5  3575      -3.545  34.885 228.729  1.00 20.00    -0.359 OA
ATOM     56  H6  FK5  3575      -3.509  34.180 228.093  1.00  0.00     0.213 HD
ENDBRANCH   9  55
BRANCH  12  57
HETATM   57  O7  FK5  3575      -6.252  32.413 226.387  1.00 20.00    -0.388 OA
HETATM   58  C43 FK5  3575      -5.625  31.156 226.647  1.00 20.00     0.202 C 
ENDBRANCH  12  57
BRANCH  14  59
HETATM   59  O8  FK5  3575      -8.055  35.539 227.220  1.00 20.00    -0.388 OA
HETATM   60  C44 FK5  3575      -8.970  36.256 226.390  1.00 20.00     0.202 C 
ENDBRANCH  14  59
TORSDOF 10
ENDMDL
MODEL 7
REMARK VINA RESULT:      -6.0      2.883      4.672
REMARK  10 active torsions:
REMARK  status: ('A' for Active; 'I' for Inactive)
REMARK    1  A    between atoms: C10_9  and  O6_51 
REMARK    2  A    between atoms: C13_12  and  O7_53 
REMARK    3  A    between atoms: C15_14  and  O8_54 
REMARK    4  A    between atoms: C21_20  and  C38_37 
REMARK    5  A    between atoms: C24_23  and  O10_56 
REMARK    6  A    between atoms: C26_25  and  C27_26 
REMARK    7  A    between atoms: C28_27  and  C29_28 
REMARK    8  A    between atoms: C31_30  and  O11_58 
REMARK    9  A    between atoms: C32_31  and  O12_59 
REMARK   10  A    between atoms: C38_37  and  C39_38 
ROOT
HETATM    1  C1  FK5  3575      -1.473  34.825 229.696  1.00 20.00     0.282 C 
HETATM    2  C2  FK5  3575      -1.494  33.385 230.136  1.00 20.00     0.187 C 
HETATM    3  C3  FK5  3575      -0.130  33.031 230.750  1.00 20.00     0.035 C 
HETATM    4  C4  FK5  3575      -0.166  31.566 231.197  1.00 20.00     0.004 C 
HETATM    5  C5  FK5  3575      -0.390  30.679 229.970  1.00 20.00     0.020 C 
HETATM    6  C6  FK5  3575      -1.739  31.026 229.330  1.00 20.00     0.127 C 
HETATM    7  C8  FK5  3575      -2.001  32.910 227.775  1.00 20.00     0.296 C 
HETATM    8  C9  FK5  3575      -2.551  32.019 226.710  1.00 20.00     0.278 C 
HETATM    9  C10 FK5  3575      -2.563  32.501 225.276  1.00 20.00     0.238 C 
HETATM   10  C11 FK5  3575      -2.406  31.307 224.335  1.00 20.00     0.055 C 
HETATM   11  C12 FK5  3575      -2.434  31.819 222.887  1.00 20.00     0.044 C 
HETATM   12  C13 FK5  3575      -3.734  32.607 222.686  1.00 20.00     0.153 C 
HETATM   13  C14 FK5  3575      -3.806  33.723 223.732  1.00 20.00     0.183 C 
HETATM   14  C15 FK5  3575      -5.122  34.491 223.544  1.00 20.00     0.152 C 
HETATM   15  C16 FK5  3575      -5.068  35.812 224.289  1.00 20.00     0.039 C 
HETATM   16  C17 FK5  3575      -4.704  37.033 223.466  1.00 20.00    -0.012 C 
HETATM   17  C18 FK5  3575      -5.607  38.203 223.881  1.00 20.00     0.037 C 
HETATM   18  C19 FK5  3575      -4.789  39.309 224.500  1.00 20.00    -0.086 C 
HETATM   19  C20 FK5  3575      -5.000  39.636 225.750  1.00 20.00    -0.012 C 
HETATM   20  C21 FK5  3575      -4.245  40.730 226.444  1.00 20.00     0.081 C 
HETATM   21  C22 FK5  3575      -4.356  40.549 227.941  1.00 20.00     0.137 C 
HETATM   22  C23 FK5  3575      -3.417  39.621 228.669  1.00 20.00     0.111 C 
HETATM   23  C24 FK5  3575      -4.140  39.025 229.875  1.00 20.00     0.131 C 
HETATM   24  C25 FK5  3575      -3.985  37.518 229.955  1.00 20.00     0.044 C 
HETATM   25  C26 FK5  3575      -2.558  37.031 229.706  1.00 20.00     0.166 C 
HETATM   26  C35 FK5  3575      -1.061  30.616 224.589  1.00 20.00     0.016 C 
HETATM   27  C36 FK5  3575      -4.847  36.824 221.963  1.00 20.00     0.010 C 
HETATM   28  C37 FK5  3575      -3.755  40.015 223.663  1.00 20.00     0.043 C 
HETATM   29  C41 FK5  3575      -4.922  36.849 228.940  1.00 20.00     0.015 C 
HETATM   30  N7  FK5  3575      -1.750  32.468 229.016  1.00 20.00    -0.331 N 
HETATM   31  O1  FK5  3575      -2.548  35.591 229.899  1.00 20.00    -0.309 OA
HETATM   32  O2  FK5  3575      -0.477  35.280 229.181  1.00 20.00    -0.263 OA
HETATM   33  O3  FK5  3575      -1.817  34.079 227.490  1.00 20.00    -0.264 OA
HETATM   34  O4  FK5  3575      -3.001  30.935 226.969  1.00 20.00    -0.281 OA
HETATM   35  O5  FK5  3575      -3.797  33.167 225.040  1.00 20.00    -0.338 OA
HETATM   36  O9  FK5  3575      -5.204  41.153 228.553  1.00 20.00    -0.297 OA
ENDROOT
BRANCH  25  37
HETATM   37  C27 FK5  3575      -1.612  37.658 230.697  1.00 20.00    -0.058 C 
HETATM   38  C28 FK5  3575      -1.677  37.332 231.963  1.00 20.00    -0.017 C 
HETATM   39  C42 FK5  3575      -0.589  38.663 230.231  1.00 20.00     0.046 C 
BRANCH  38  40
HETATM   40  C29 FK5  3575      -0.632  37.832 232.926  1.00 20.00     0.011 C 
HETATM   41  C34 FK5  3575       0.649  37.012 232.760  1.00 20.00     0.011 C 
HETATM   42  C33 FK5  3575       1.710  37.519 233.738  1.00 20.00     0.035 C 
HETATM   43  C32 FK5  3575       1.195  37.374 235.171  1.00 20.00     0.147 C 
HETATM   44  C31 FK5  3575      -0.086  38.195 235.337  1.00 20.00     0.150 C 
HETATM   45  C30 FK5  3575      -1.148  37.687 234.359  1.00 20.00     0.043 C 
BRANCH  43  46
HETATM   46  O12 FK5  3575       2.186  37.849 236.084  1.00 20.00    -0.393 OA
ATOM     47  H12 FK5  3575       2.015  37.494 236.948  1.00  0.00     0.210 HD
ENDBRANCH  43  46
BRANCH  44  48
HETATM   48  O11 FK5  3575      -0.568  38.060 236.676  1.00 20.00    -0.388 OA
HETATM   49  C45 FK5  3575      -1.101  36.739 236.790  1.00 20.00     0.202 C 
ENDBRANCH  44  48
ENDBRANCH  38  40
ENDBRANCH  25  37
BRANCH  23  50
HETATM   50  O10 FK5  3575      -3.701  39.653 231.077  1.00 20.00    -0.395 OA
ATOM     51  H10 FK5  3575      -2.781  39.881 231.015  1.00  0.00     0.210 HD
ENDBRANCH  23  50
BRANCH  20  52
HETATM   52  C38 FK5  3575      -4.853  42.089 226.080  1.00 20.00     0.042 C 
BRANCH  52  53
HETATM   53  C39 FK5  3575      -3.767  43.134 226.054  1.00 20.00    -0.036 C 
HETATM   54  C40 FK5  3575      -2.543  42.798 225.729  1.00 20.00     0.007 C 
ENDBRANCH  52  53
ENDBRANCH  20  52
BRANCH   9  55
HETATM   55  O6  FK5  3575      -1.472  33.403 225.075  1.00 20.00    -0.359 OA
ATOM     56  H6  FK5  3575      -1.808  34.288 225.000  1.00  0.00     0.213 HD
ENDBRANCH   9  55
BRANCH  12  57
HETATM   57  O7  FK5  3575      -3.752  33.177 221.377  1.00 20.00    -0.388 OA
HETATM   58  C43 FK5  3575      -2.446  33.709 221.139  1.00 20.00     0.202 C 
ENDBRANCH  12  57
BRANCH  14  59
HETATM   59  O8  FK5  3575      -6.169  33.691 224.134  1.00 20.00    -0.388 OA
HETATM   60  C44 FK5  3575      -6.965  34.572 224.929  1.00 20.00     0.202 C 
ENDBRANCH  14  59
TORSDOF 10
ENDMDL
MODEL 8
REMARK VINA RESULT:      -5.7      6.158     10.706
REMARK  10 active torsions:
REMARK  status: ('A' for Active; 'I' for Inactive)
REMARK    1  A    between atoms: C10_9  and  O6_51 
REMARK    2  A    between atoms: C13_12  and  O7_53 
REMARK    3  A    between atoms: C15_14  and  O8_54 
REMARK    4  A    between atoms: C21_20  and  C38_37 
REMARK    5  A    between atoms: C24_23  and  O10_56 
REMARK    6  A    between atoms: C26_25  and  C27_26 
REMARK    7  A    between atoms: C28_27  and  C29_28 
REMARK    8  A    between atoms: C31_30  and  O11_58 
REMARK    9  A    between atoms: C32_31  and  O12_59 
REMARK   10  A    between atoms: C38_37  and  C39_38 
ROOT
HETATM    1  C1  FK5  3575      -0.999  35.599 234.053  1.00 20.00     0.282 C 
HETATM    2  C2  FK5  3575      -0.125  35.584 232.827  1.00 20.00     0.187 C 
HETATM    3  C3  FK5  3575       0.485  36.980 232.631  1.00 20.00     0.035 C 
HETATM    4  C4  FK5  3575       1.374  36.950 231.383  1.00 20.00     0.004 C 
HETATM    5  C5  FK5  3575       0.507  36.625 230.165  1.00 20.00     0.020 C 
HETATM    6  C6  FK5  3575      -0.127  35.241 230.345  1.00 20.00     0.127 C 
HETATM    7  C8  FK5  3575      -2.180  34.905 231.653  1.00 20.00     0.296 C 
HETATM    8  C9  FK5  3575      -2.872  34.267 230.495  1.00 20.00     0.278 C 
HETATM    9  C10 FK5  3575      -4.382  34.163 230.502  1.00 20.00     0.238 C 
HETATM   10  C11 FK5  3575      -4.905  34.233 229.067  1.00 20.00     0.055 C 
HETATM   11  C12 FK5  3575      -6.436  34.114 229.099  1.00 20.00     0.044 C 
HETATM   12  C13 FK5  3575      -6.797  32.817 229.834  1.00 20.00     0.153 C 
HETATM   13  C14 FK5  3575      -6.155  32.838 231.224  1.00 20.00     0.183 C 
HETATM   14  C15 FK5  3575      -6.496  31.526 231.945  1.00 20.00     0.152 C 
HETATM   15  C16 FK5  3575      -6.212  31.655 233.429  1.00 20.00     0.039 C 
HETATM   16  C17 FK5  3575      -7.400  31.982 234.314  1.00 20.00    -0.012 C 
HETATM   17  C18 FK5  3575      -7.322  31.131 235.589  1.00 20.00     0.037 C 
HETATM   18  C19 FK5  3575      -7.136  32.010 236.802  1.00 20.00    -0.086 C 
HETATM   19  C20 FK5  3575      -6.043  31.892 237.513  1.00 20.00    -0.012 C 
HETATM   20  C21 FK5  3575      -5.777  32.713 238.739  1.00 20.00     0.081 C 
HETATM   21  C22 FK5  3575      -4.296  32.703 239.042  1.00 20.00     0.137 C 
HETATM   22  C23 FK5  3575      -3.371  33.674 238.355  1.00 20.00     0.111 C 
HETATM   23  C24 FK5  3575      -1.996  33.026 238.197  1.00 20.00     0.131 C 
HETATM   24  C25 FK5  3575      -1.453  33.160 236.787  1.00 20.00     0.044 C 
HETATM   25  C26 FK5  3575      -1.621  34.557 236.191  1.00 20.00     0.166 C 
HETATM   26  C35 FK5  3575      -4.528  35.580 228.439  1.00 20.00     0.016 C 
HETATM   27  C36 FK5  3575      -8.748  31.731 233.650  1.00 20.00     0.010 C 
HETATM   28  C37 FK5  3575      -8.214  32.995 237.168  1.00 20.00     0.043 C 
HETATM   29  C41 FK5  3575      -2.146  32.143 235.869  1.00 20.00     0.015 C 
HETATM   30  N7  FK5  3575      -0.880  35.235 231.615  1.00 20.00    -0.331 N 
HETATM   31  O1  FK5  3575      -0.983  34.555 234.885  1.00 20.00    -0.309 OA
HETATM   32  O2  FK5  3575      -1.690  36.566 234.284  1.00 20.00    -0.263 OA
HETATM   33  O3  FK5  3575      -2.831  35.090 232.666  1.00 20.00    -0.264 OA
HETATM   34  O4  FK5  3575      -2.257  33.817 229.565  1.00 20.00    -0.281 OA
HETATM   35  O5  FK5  3575      -4.742  32.928 231.107  1.00 20.00    -0.338 OA
HETATM   36  O9  FK5  3575      -3.857  31.911 239.841  1.00 20.00    -0.297 OA
ENDROOT
BRANCH  25  37
HETATM   37  C27 FK5  3575      -0.939  35.581 237.061  1.00 20.00    -0.058 C 
HETATM   38  C28 FK5  3575       0.364  35.569 237.189  1.00 20.00    -0.017 C 
HETATM   39  C42 FK5  3575      -1.756  36.620 237.786  1.00 20.00     0.046 C 
BRANCH  38  40
HETATM   40  C29 FK5  3575       1.060  36.685 237.924  1.00 20.00     0.011 C 
HETATM   41  C34 FK5  3575       1.764  37.598 236.918  1.00 20.00     0.011 C 
HETATM   42  C33 FK5  3575       2.471  38.730 237.664  1.00 20.00     0.035 C 
HETATM   43  C32 FK5  3575       3.504  38.141 238.625  1.00 20.00     0.147 C 
HETATM   44  C31 FK5  3575       2.800  37.228 239.632  1.00 20.00     0.150 C 
HETATM   45  C30 FK5  3575       2.093  36.095 238.885  1.00 20.00     0.043 C 
BRANCH  43  46
HETATM   46  O12 FK5  3575       4.164  39.199 239.323  1.00 20.00    -0.393 OA
ATOM     47  H12 FK5  3575       3.815  40.034 239.033  1.00  0.00     0.210 HD
ENDBRANCH  43  46
BRANCH  44  48
HETATM   48  O11 FK5  3575       3.766  36.677 240.530  1.00 20.00    -0.388 OA
HETATM   49  C45 FK5  3575       3.356  35.337 240.806  1.00 20.00     0.202 C 
ENDBRANCH  44  48
ENDBRANCH  38  40
ENDBRANCH  25  37
BRANCH  23  50
HETATM   50  O10 FK5  3575      -1.083  33.559 239.154  1.00 20.00    -0.395 OA
ATOM     51  H10 FK5  3575      -0.535  34.224 238.754  1.00  0.00     0.210 HD
ENDBRANCH  23  50
BRANCH  20  52
HETATM   52  C38 FK5  3575      -6.515  32.105 239.938  1.00 20.00     0.042 C 
BRANCH  52  53
HETATM   53  C39 FK5  3575      -7.299  33.182 240.644  1.00 20.00    -0.036 C 
HETATM   54  C40 FK5  3575      -8.581  33.020 240.863  1.00 20.00     0.007 C 
ENDBRANCH  52  53
ENDBRANCH  20  52
BRANCH   9  55
HETATM   55  O6  FK5  3575      -4.924  35.254 231.251  1.00 20.00    -0.359 OA
ATOM     56  H6  FK5  3575      -4.940  35.023 232.173  1.00  0.00     0.213 HD
ENDBRANCH   9  55
BRANCH  12  57
HETATM   57  O7  FK5  3575      -8.216  32.718 229.964  1.00 20.00    -0.388 OA
HETATM   58  C43 FK5  3575      -8.683  34.002 230.385  1.00 20.00     0.202 C 
ENDBRANCH  12  57
BRANCH  14  59
HETATM   59  O8  FK5  3575      -5.622  30.508 231.412  1.00 20.00    -0.388 OA
HETATM   60  C44 FK5  3575      -4.932  29.932 232.523  1.00 20.00     0.202 C 
ENDBRANCH  14  59
TORSDOF 10
ENDMDL
MODEL 9
REMARK VINA RESULT:      -5.7      5.017      8.039
REMARK  10 active torsions:
REMARK  status: ('A' for Active; 'I' for Inactive)
REMARK    1  A    between atoms: C10_9  and  O6_51 
REMARK    2  A    between atoms: C13_12  and  O7_53 
REMARK    3  A    between atoms: C15_14  and  O8_54 
REMARK    4  A    between atoms: C21_20  and  C38_37 
REMARK    5  A    between atoms: C24_23  and  O10_56 
REMARK    6  A    between atoms: C26_25  and  C27_26 
REMARK    7  A    between atoms: C28_27  and  C29_28 
REMARK    8  A    between atoms: C31_30  and  O11_58 
REMARK    9  A    between atoms: C32_31  and  O12_59 
REMARK   10  A    between atoms: C38_37  and  C39_38 
ROOT
HETATM    1  C1  FK5  3575      -3.172  34.292 234.406  1.00 20.00     0.282 C 
HETATM    2  C2  FK5  3575      -4.153  34.570 235.515  1.00 20.00     0.187 C 
HETATM    3  C3  FK5  3575      -3.808  33.683 236.721  1.00 20.00     0.035 C 
HETATM    4  C4  FK5  3575      -4.810  33.978 237.841  1.00 20.00     0.004 C 
HETATM    5  C5  FK5  3575      -6.215  33.613 237.359  1.00 20.00     0.020 C 
HETATM    6  C6  FK5  3575      -6.576  34.475 236.143  1.00 20.00     0.127 C 
HETATM    7  C8  FK5  3575      -5.853  33.892 233.868  1.00 20.00     0.296 C 
HETATM    8  C9  FK5  3575      -7.260  33.891 233.368  1.00 20.00     0.278 C 
HETATM    9  C10 FK5  3575      -7.579  33.195 232.063  1.00 20.00     0.238 C 
HETATM   10  C11 FK5  3575      -9.004  32.643 232.116  1.00 20.00     0.055 C 
HETATM   11  C12 FK5  3575      -9.311  31.953 230.778  1.00 20.00     0.044 C 
HETATM   12  C13 FK5  3575      -9.073  32.969 229.653  1.00 20.00     0.153 C 
HETATM   13  C14 FK5  3575      -7.640  33.499 229.756  1.00 20.00     0.183 C 
HETATM   14  C15 FK5  3575      -7.417  34.535 228.646  1.00 20.00     0.152 C 
HETATM   15  C16 FK5  3575      -5.934  34.803 228.470  1.00 20.00     0.039 C 
HETATM   16  C17 FK5  3575      -5.243  34.048 227.351  1.00 20.00    -0.012 C 
HETATM   17  C18 FK5  3575      -4.284  35.000 226.623  1.00 20.00     0.037 C 
HETATM   18  C19 FK5  3575      -2.855  34.545 226.794  1.00 20.00    -0.086 C 
HETATM   19  C20 FK5  3575      -2.010  35.321 227.425  1.00 20.00    -0.012 C 
HETATM   20  C21 FK5  3575      -0.570  34.958 227.630  1.00 20.00     0.081 C 
HETATM   21  C22 FK5  3575       0.002  35.783 228.762  1.00 20.00     0.137 C 
HETATM   22  C23 FK5  3575      -0.176  35.341 230.192  1.00 20.00     0.111 C 
HETATM   23  C24 FK5  3575      -0.244  36.576 231.090  1.00 20.00     0.131 C 
HETATM   24  C25 FK5  3575      -1.418  36.528 232.049  1.00 20.00     0.044 C 
HETATM   25  C26 FK5  3575      -1.599  35.174 232.736  1.00 20.00     0.166 C 
HETATM   26  C35 FK5  3575      -9.124  31.610 233.242  1.00 20.00     0.016 C 
HETATM   27  C36 FK5  3575      -6.203  33.456 226.326  1.00 20.00     0.010 C 
HETATM   28  C37 FK5  3575      -2.435  33.214 226.231  1.00 20.00     0.043 C 
HETATM   29  C41 FK5  3575      -2.710  36.882 231.301  1.00 20.00     0.015 C 
HETATM   30  N7  FK5  3575      -5.537  34.285 235.112  1.00 20.00    -0.331 N 
HETATM   31  O1  FK5  3575      -2.696  35.306 233.679  1.00 20.00    -0.309 OA
HETATM   32  O2  FK5  3575      -2.808  33.157 234.198  1.00 20.00    -0.263 OA
HETATM   33  O3  FK5  3575      -4.979  33.555 233.090  1.00 20.00    -0.264 OA
HETATM   34  O4  FK5  3575      -8.141  34.445 233.970  1.00 20.00    -0.281 OA
HETATM   35  O5  FK5  3575      -7.446  34.139 231.009  1.00 20.00    -0.338 OA
HETATM   36  O9  FK5  3575       0.603  36.800 228.513  1.00 20.00    -0.297 OA
ENDROOT
BRANCH  25  37
HETATM   37  C27 FK5  3575      -0.351  34.802 233.494  1.00 20.00    -0.058 C 
HETATM   38  C28 FK5  3575       0.044  35.534 234.505  1.00 20.00    -0.017 C 
HETATM   39  C42 FK5  3575       0.443  33.587 233.089  1.00 20.00     0.046 C 
BRANCH  38  40
HETATM   40  C29 FK5  3575       1.195  35.076 235.363  1.00 20.00     0.011 C 
HETATM   41  C34 FK5  3575       0.660  34.255 236.538  1.00 20.00     0.011 C 
HETATM   42  C33 FK5  3575       1.828  33.790 237.409  1.00 20.00     0.035 C 
HETATM   43  C32 FK5  3575       2.583  35.008 237.943  1.00 20.00     0.147 C 
HETATM   44  C31 FK5  3575       3.118  35.831 236.768  1.00 20.00     0.150 C 
HETATM   45  C30 FK5  3575       1.950  36.296 235.897  1.00 20.00     0.043 C 
BRANCH  43  46
HETATM   46  O12 FK5  3575       3.674  34.574 238.756  1.00 20.00    -0.393 OA
ATOM     47  H12 FK5  3575       4.219  35.320 238.978  1.00  0.00     0.210 HD
ENDBRANCH  43  46
BRANCH  44  48
HETATM   48  O11 FK5  3575       3.823  36.969 237.267  1.00 20.00    -0.388 OA
HETATM   49  C45 FK5  3575       2.906  38.065 237.245  1.00 20.00     0.202 C 
ENDBRANCH  44  48
ENDBRANCH  38  40
ENDBRANCH  25  37
BRANCH  23  50
HETATM   50  O10 FK5  3575       0.987  36.749 231.789  1.00 20.00    -0.395 OA
ATOM     51  H10 FK5  3575       0.825  36.885 232.715  1.00  0.00     0.210 HD
ENDBRANCH  23  50
BRANCH  20  52
HETATM   52  C38 FK5  3575       0.229  35.271 226.360  1.00 20.00     0.042 C 
BRANCH  52  53
HETATM   53  C39 FK5  3575       0.938  34.025 225.893  1.00 20.00    -0.036 C 
HETATM   54  C40 FK5  3575       1.141  33.036 226.728  1.00 20.00     0.007 C 
ENDBRANCH  52  53
ENDBRANCH  20  52
BRANCH   9  55
HETATM   55  O6  FK5  3575      -6.665  32.112 231.872  1.00 20.00    -0.359 OA
ATOM     56  H6  FK5  3575      -7.050  31.480 231.276  1.00  0.00     0.213 HD
ENDBRANCH   9  55
BRANCH  12  57
HETATM   57  O7  FK5  3575      -9.259  32.335 228.387  1.00 20.00    -0.388 OA
HETATM   58  C43 FK5  3575      -8.676  31.034 228.486  1.00 20.00     0.202 C 
ENDBRANCH  12  57
BRANCH  14  59
HETATM   59  O8  FK5  3575      -8.042  35.763 229.077  1.00 20.00    -0.388 OA
HETATM   60  C44 FK5  3575      -7.202  36.832 228.638  1.00 20.00     0.202 C 
ENDBRANCH  14  59
TORSDOF 10
ENDMDL
