MODEL 1
REMARK VINA RESULT:      -8.5      0.000      0.000
REMARK  9 active torsions:
REMARK  status: ('A' for Active; 'I' for Inactive)
REMARK    1  A    between atoms: C10_14  and  O6_16 
REMARK    2  A    between atoms: C16_23  and  O7_24 
REMARK    3  A    between atoms: C27_36  and  O9_37 
REMARK    4  A    between atoms: C28_38  and  O10_39 
REMARK    5  A    between atoms: C34_47  and  C35_48 
REMARK    6  A    between atoms: C35_48  and  C36_49 
REMARK    7  A    between atoms: C36_49  and  C37_50 
REMARK    8  A    between atoms: C39_52  and  O12_53 
REMARK    9  A    between atoms: C40_54  and  O13_55 
ROOT
HETATM    1  C1  RAP  6544      -4.437  38.099 228.838  1.00 20.00     0.282 C 
HETATM    2  O1  RAP  6544      -3.146  37.522 228.985  1.00 20.00    -0.314 OA
HETATM    3  O2  RAP  6544      -4.729  39.052 229.558  1.00 20.00    -0.263 OA
HETATM    4  C2  RAP  6544      -5.438  37.597 227.799  1.00 20.00     0.187 C 
HETATM    5  C3  RAP  6544      -6.835  37.485 228.392  1.00 20.00     0.035 C 
HETATM    6  C4  RAP  6544      -7.013  36.285 229.311  1.00 20.00     0.004 C 
HETATM    7  C5  RAP  6544      -6.622  35.038 228.541  1.00 20.00     0.020 C 
HETATM    8  C6  RAP  6544      -5.209  35.133 228.055  1.00 20.00     0.127 C 
HETATM    9  N7  RAP  6544      -5.114  36.309 227.177  1.00 20.00    -0.331 N 
HETATM   10  C8  RAP  6544      -4.591  36.263 225.942  1.00 20.00     0.296 C 
HETATM   11  O3  RAP  6544      -4.467  37.325 225.316  1.00 20.00    -0.264 OA
HETATM   12  C9  RAP  6544      -4.251  35.055 225.295  1.00 20.00     0.278 C 
HETATM   13  O4  RAP  6544      -5.122  34.446 224.661  1.00 20.00    -0.281 OA
HETATM   14  C10 RAP  6544      -2.830  34.464 225.346  1.00 20.00     0.238 C 
HETATM   15  O5  RAP  6544      -2.708  33.893 226.629  1.00 20.00    -0.343 OA
HETATM   16  C11 RAP  6544      -1.692  35.546 225.147  1.00 20.00     0.053 C 
HETATM   17  C12 RAP  6544      -0.304  34.973 225.517  1.00 20.00     0.013 C 
HETATM   18  C13 RAP  6544      -0.355  34.286 226.874  1.00 20.00     0.033 C 
HETATM   19  C14 RAP  6544      -1.518  33.309 227.019  1.00 20.00     0.128 C 
HETATM   20  C15 RAP  6544      -1.716  32.963 228.484  1.00 20.00     0.068 C 
HETATM   21  C16 RAP  6544      -0.640  32.102 229.134  1.00 20.00     0.152 C 
HETATM   22  C17 RAP  6544      -0.937  31.861 230.599  1.00 20.00    -0.055 C 
HETATM   23  C18 RAP  6544      -0.123  32.387 231.504  1.00 20.00     0.005 C 
HETATM   24  C19 RAP  6544      -0.295  32.265 232.958  1.00 20.00     0.000 C 
HETATM   25  C20 RAP  6544       0.618  32.793 233.762  1.00 20.00    -0.000 C 
HETATM   26  C21 RAP  6544       0.443  32.788 235.227  1.00 20.00    -0.004 C 
HETATM   27  C22 RAP  6544       1.232  33.482 236.024  1.00 20.00    -0.022 C 
HETATM   28  C23 RAP  6544       1.035  33.603 237.520  1.00 20.00     0.005 C 
HETATM   29  C24 RAP  6544       0.943  35.087 237.827  1.00 20.00     0.020 C 
HETATM   30  C25 RAP  6544      -0.069  35.898 237.039  1.00 20.00     0.055 C 
HETATM   31  C26 RAP  6544       0.270  37.381 237.086  1.00 20.00     0.162 C 
HETATM   32  O8  RAP  6544      -0.121  38.100 238.003  1.00 20.00    -0.295 OA
HETATM   33  C27 RAP  6544       1.107  37.929 235.935  1.00 20.00     0.223 C 
HETATM   34  C28 RAP  6544       0.263  38.309 234.676  1.00 20.00     0.183 C 
HETATM   35  C29 RAP  6544      -0.081  37.104 233.779  1.00 20.00    -0.056 C 
HETATM   36  C30 RAP  6544      -1.316  36.619 233.656  1.00 20.00    -0.010 C 
HETATM   37  C31 RAP  6544      -1.835  35.467 232.783  1.00 20.00     0.074 C 
HETATM   38  C32 RAP  6544      -2.559  36.034 231.563  1.00 20.00     0.136 C 
HETATM   39  O11 RAP  6544      -3.791  36.059 231.483  1.00 20.00    -0.297 OA
HETATM   40  C33 RAP  6544      -1.664  36.621 230.477  1.00 20.00     0.112 C 
HETATM   41  C34 RAP  6544      -2.208  37.921 229.922  1.00 20.00     0.142 C 
HETATM   42  C43 RAP  6544      -1.652  36.219 223.744  1.00 20.00     0.016 C 
HETATM   43  C44 RAP  6544      -2.166  30.984 230.895  1.00 20.00     0.046 C 
HETATM   44  C45 RAP  6544       2.192  32.967 238.276  1.00 20.00     0.014 C 
HETATM   45  C46 RAP  6544      -1.499  35.649 237.531  1.00 20.00     0.018 C 
HETATM   46  C47 RAP  6544       1.111  36.505 233.055  1.00 20.00     0.046 C 
HETATM   47  C48 RAP  6544      -2.807  34.613 233.613  1.00 20.00     0.022 C 
ENDROOT
BRANCH  41  48
HETATM   48  C35 RAP  6544      -1.241  38.862 229.175  1.00 20.00     0.012 C 
HETATM   49  C49 RAP  6544       0.159  38.320 229.132  1.00 20.00     0.012 C 
BRANCH  48  50
HETATM   50  C36 RAP  6544      -1.250  40.275 229.754  1.00 20.00     0.011 C 
BRANCH  50  51
HETATM   51  C37 RAP  6544      -0.556  41.371 228.943  1.00 20.00    -0.012 C 
HETATM   52  C42 RAP  6544       0.199  42.416 229.764  1.00 20.00     0.007 C 
HETATM   53  C41 RAP  6544       0.903  43.444 228.890  1.00 20.00     0.035 C 
HETATM   54  C40 RAP  6544      -0.087  44.108 227.912  1.00 20.00     0.147 C 
HETATM   55  C39 RAP  6544      -0.913  43.072 227.072  1.00 20.00     0.150 C 
HETATM   56  C38 RAP  6544      -1.562  42.045 228.001  1.00 20.00     0.039 C 
BRANCH  54  57
HETATM   57  O13 RAP  6544       0.634  44.960 227.024  1.00 20.00    -0.393 OA
ATOM     58  H13 RAP  6544       0.253  45.829 227.050  1.00  0.00     0.210 HD
ENDBRANCH  54  57
BRANCH  55  59
HETATM   59  O12 RAP  6544      -1.962  43.717 226.395  1.00 20.00    -0.388 OA
HETATM   60  C52 RAP  6544      -3.189  43.072 226.389  1.00 20.00     0.202 C 
ENDBRANCH  55  59
ENDBRANCH  50  51
ENDBRANCH  48  50
ENDBRANCH  41  48
BRANCH  34  61
HETATM   61  O10 RAP  6544      -0.944  38.932 235.137  1.00 20.00    -0.388 OA
ATOM     62  H10 RAP  6544      -0.767  39.298 235.995  1.00  0.00     0.210 HD
ENDBRANCH  34  61
BRANCH  33  63
HETATM   63  O9  RAP  6544       1.743  39.104 236.362  1.00 20.00    -0.380 OA
HETATM   64  C51 RAP  6544       2.780  38.929 237.264  1.00 20.00     0.202 C 
ENDBRANCH  33  63
BRANCH  14  65
HETATM   65  O6  RAP  6544      -2.709  33.469 224.325  1.00 20.00    -0.359 OA
ATOM     66  H6  RAP  6544      -1.952  33.673 223.788  1.00  0.00     0.213 HD
ENDBRANCH  14  65
BRANCH  21  67
HETATM   67  O7  RAP  6544      -0.604  30.883 228.462  1.00 20.00    -0.386 OA
HETATM   68  C50 RAP  6544       0.617  30.522 227.901  1.00 20.00     0.202 C 
ENDBRANCH  21  67
TORSDOF 9
ENDMDL
MODEL 2
REMARK VINA RESULT:      -8.2      2.117      3.284
REMARK  9 active torsions:
REMARK  status: ('A' for Active; 'I' for Inactive)
REMARK    1  A    between atoms: C10_14  and  O6_16 
REMARK    2  A    between atoms: C16_23  and  O7_24 
REMARK    3  A    between atoms: C27_36  and  O9_37 
REMARK    4  A    between atoms: C28_38  and  O10_39 
REMARK    5  A    between atoms: C34_47  and  C35_48 
REMARK    6  A    between atoms: C35_48  and  C36_49 
REMARK    7  A    between atoms: C36_49  and  C37_50 
REMARK    8  A    between atoms: C39_52  and  O12_53 
REMARK    9  A    between atoms: C40_54  and  O13_55 
ROOT
HETATM    1  C1  RAP  6544      -5.315  36.096 232.469  1.00 20.00     0.282 C 
HETATM    2  O1  RAP  6544      -3.919  35.996 232.216  1.00 20.00    -0.314 OA
HETATM    3  O2  RAP  6544      -5.675  36.656 233.503  1.00 20.00    -0.263 OA
HETATM    4  C2  RAP  6544      -6.359  35.569 231.486  1.00 20.00     0.187 C 
HETATM    5  C3  RAP  6544      -7.464  34.817 232.211  1.00 20.00     0.035 C 
HETATM    6  C4  RAP  6544      -7.049  33.433 232.689  1.00 20.00     0.004 C 
HETATM    7  C5  RAP  6544      -6.524  32.658 231.495  1.00 20.00     0.020 C 
HETATM    8  C6  RAP  6544      -5.371  33.372 230.861  1.00 20.00     0.127 C 
HETATM    9  N7  RAP  6544      -5.846  34.695 230.426  1.00 20.00    -0.331 N 
HETATM   10  C8  RAP  6544      -5.664  35.168 229.183  1.00 20.00     0.296 C 
HETATM   11  O3  RAP  6544      -6.016  36.330 228.940  1.00 20.00    -0.264 OA
HETATM   12  C9  RAP  6544      -5.167  34.377 228.125  1.00 20.00     0.278 C 
HETATM   13  O4  RAP  6544      -5.957  33.692 227.462  1.00 20.00    -0.281 OA
HETATM   14  C10 RAP  6544      -3.672  34.336 227.758  1.00 20.00     0.238 C 
HETATM   15  O5  RAP  6544      -3.068  33.526 228.740  1.00 20.00    -0.343 OA
HETATM   16  C11 RAP  6544      -2.984  35.762 227.765  1.00 20.00     0.053 C 
HETATM   17  C12 RAP  6544      -1.444  35.640 227.705  1.00 20.00     0.013 C 
HETATM   18  C13 RAP  6544      -0.947  34.645 228.744  1.00 20.00     0.033 C 
HETATM   19  C14 RAP  6544      -1.702  33.319 228.726  1.00 20.00     0.128 C 
HETATM   20  C15 RAP  6544      -1.412  32.548 230.002  1.00 20.00     0.068 C 
HETATM   21  C16 RAP  6544      -0.004  31.984 230.155  1.00 20.00     0.152 C 
HETATM   22  C17 RAP  6544       0.164  31.272 231.480  1.00 20.00    -0.055 C 
HETATM   23  C18 RAP  6544       0.994  31.790 232.375  1.00 20.00     0.005 C 
HETATM   24  C19 RAP  6544       1.240  31.233 233.712  1.00 20.00     0.000 C 
HETATM   25  C20 RAP  6544       2.135  31.815 234.498  1.00 20.00    -0.000 C 
HETATM   26  C21 RAP  6544       2.348  31.358 235.885  1.00 20.00    -0.004 C 
HETATM   27  C22 RAP  6544       3.080  32.047 236.740  1.00 20.00    -0.022 C 
HETATM   28  C23 RAP  6544       3.243  31.687 238.201  1.00 20.00     0.005 C 
HETATM   29  C24 RAP  6544       2.808  32.904 238.999  1.00 20.00     0.020 C 
HETATM   30  C25 RAP  6544       1.440  33.482 238.692  1.00 20.00     0.055 C 
HETATM   31  C26 RAP  6544       1.337  34.920 239.183  1.00 20.00     0.162 C 
HETATM   32  O8  RAP  6544       1.002  35.182 240.336  1.00 20.00    -0.295 OA
HETATM   33  C27 RAP  6544       1.659  36.014 238.170  1.00 20.00     0.223 C 
HETATM   34  C28 RAP  6544       0.450  36.391 237.255  1.00 20.00     0.183 C 
HETATM   35  C29 RAP  6544       0.251  35.429 236.069  1.00 20.00    -0.056 C 
HETATM   36  C30 RAP  6544      -0.780  34.590 235.978  1.00 20.00    -0.010 C 
HETATM   37  C31 RAP  6544      -1.150  33.606 234.858  1.00 20.00     0.074 C 
HETATM   38  C32 RAP  6544      -2.292  34.184 234.024  1.00 20.00     0.136 C 
HETATM   39  O11 RAP  6544      -3.457  33.791 234.145  1.00 20.00    -0.297 OA
HETATM   40  C33 RAP  6544      -1.911  35.315 233.076  1.00 20.00     0.112 C 
HETATM   41  C34 RAP  6544      -2.930  36.437 233.079  1.00 20.00     0.142 C 
HETATM   42  C43 RAP  6544      -3.498  36.753 226.680  1.00 20.00     0.016 C 
HETATM   43  C44 RAP  6544      -0.642  29.972 231.647  1.00 20.00     0.046 C 
HETATM   44  C45 RAP  6544       4.687  31.325 238.515  1.00 20.00     0.014 C 
HETATM   45  C46 RAP  6544       0.317  32.623 239.282  1.00 20.00     0.018 C 
HETATM   46  C47 RAP  6544       1.339  35.506 235.014  1.00 20.00     0.046 C 
HETATM   47  C48 RAP  6544      -1.589  32.275 235.490  1.00 20.00     0.022 C 
ENDROOT
BRANCH  41  48
HETATM   48  C35 RAP  6544      -2.499  37.821 232.555  1.00 20.00     0.012 C 
HETATM   49  C49 RAP  6544      -3.324  38.932 233.141  1.00 20.00     0.012 C 
BRANCH  48  50
HETATM   50  C36 RAP  6544      -2.515  37.891 231.030  1.00 20.00     0.011 C 
BRANCH  50  51
HETATM   51  C37 RAP  6544      -2.710  39.268 230.392  1.00 20.00    -0.012 C 
HETATM   52  C42 RAP  6544      -3.735  39.326 229.260  1.00 20.00     0.007 C 
HETATM   53  C41 RAP  6544      -3.912  40.734 228.707  1.00 20.00     0.035 C 
HETATM   54  C40 RAP  6544      -2.558  41.328 228.269  1.00 20.00     0.147 C 
HETATM   55  C39 RAP  6544      -1.462  41.257 229.389  1.00 20.00     0.150 C 
HETATM   56  C38 RAP  6544      -1.360  39.830 229.930  1.00 20.00     0.039 C 
BRANCH  54  57
HETATM   57  O13 RAP  6544      -2.748  42.689 227.888  1.00 20.00    -0.393 OA
ATOM     58  H13 RAP  6544      -2.984  43.196 228.656  1.00  0.00     0.210 HD
ENDBRANCH  54  57
BRANCH  55  59
HETATM   59  O12 RAP  6544      -0.200  41.573 228.857  1.00 20.00    -0.388 OA
HETATM   60  C52 RAP  6544       0.440  42.682 229.389  1.00 20.00     0.202 C 
ENDBRANCH  55  59
ENDBRANCH  50  51
ENDBRANCH  48  50
ENDBRANCH  41  48
BRANCH  34  61
HETATM   61  O10 RAP  6544      -0.727  36.400 238.076  1.00 20.00    -0.388 OA
ATOM     62  H10 RAP  6544      -1.477  36.477 237.499  1.00  0.00     0.210 HD
ENDBRANCH  34  61
BRANCH  33  63
HETATM   63  O9  RAP  6544       2.015  37.179 238.866  1.00 20.00    -0.380 OA
HETATM   64  C51 RAP  6544       2.375  38.259 238.077  1.00 20.00     0.202 C 
ENDBRANCH  33  63
BRANCH  14  65
HETATM   65  O6  RAP  6544      -3.533  33.759 226.456  1.00 20.00    -0.359 OA
ATOM     66  H6  RAP  6544      -4.234  33.133 226.323  1.00  0.00     0.213 HD
ENDBRANCH  14  65
BRANCH  21  67
HETATM   67  O7  RAP  6544       0.209  31.082 229.115  1.00 20.00    -0.386 OA
HETATM   68  C50 RAP  6544       1.183  31.432 228.184  1.00 20.00     0.202 C 
ENDBRANCH  21  67
TORSDOF 9
ENDMDL
MODEL 3
REMARK VINA RESULT:      -8.2      3.133      9.762
REMARK  9 active torsions:
REMARK  status: ('A' for Active; 'I' for Inactive)
REMARK    1  A    between atoms: C10_14  and  O6_16 
REMARK    2  A    between atoms: C16_23  and  O7_24 
REMARK    3  A    between atoms: C27_36  and  O9_37 
REMARK    4  A    between atoms: C28_38  and  O10_39 
REMARK    5  A    between atoms: C34_47  and  C35_48 
REMARK    6  A    between atoms: C35_48  and  C36_49 
REMARK    7  A    between atoms: C36_49  and  C37_50 
REMARK    8  A    between atoms: C39_52  and  O12_53 
REMARK    9  A    between atoms: C40_54  and  O13_55 
ROOT
HETATM    1  C1  RAP  6544      -0.422  37.083 229.635  1.00 20.00     0.282 C 
HETATM    2  O1  RAP  6544      -1.778  37.495 229.754  1.00 20.00    -0.314 OA
HETATM    3  O2  RAP  6544       0.335  37.779 228.962  1.00 20.00    -0.263 OA
HETATM    4  C2  RAP  6544       0.115  35.841 230.345  1.00 20.00     0.187 C 
HETATM    5  C3  RAP  6544       1.004  35.023 229.420  1.00 20.00     0.035 C 
HETATM    6  C4  RAP  6544       0.232  34.232 228.374  1.00 20.00     0.004 C 
HETATM    7  C5  RAP  6544      -0.788  33.368 229.091  1.00 20.00     0.020 C 
HETATM    8  C6  RAP  6544      -1.713  34.208 229.915  1.00 20.00     0.127 C 
HETATM    9  N7  RAP  6544      -0.900  34.940 230.900  1.00 20.00    -0.331 N 
HETATM   10  C8  RAP  6544      -1.168  34.945 232.215  1.00 20.00     0.296 C 
HETATM   11  O3  RAP  6544      -0.482  35.666 232.951  1.00 20.00    -0.264 OA
HETATM   12  C9  RAP  6544      -2.139  34.106 232.804  1.00 20.00     0.278 C 
HETATM   13  O4  RAP  6544      -1.818  32.960 233.145  1.00 20.00    -0.281 OA
HETATM   14  C10 RAP  6544      -3.588  34.566 233.046  1.00 20.00     0.238 C 
HETATM   15  O5  RAP  6544      -4.212  34.517 231.783  1.00 20.00    -0.343 OA
HETATM   16  C11 RAP  6544      -3.693  36.038 233.621  1.00 20.00     0.053 C 
HETATM   17  C12 RAP  6544      -5.145  36.564 233.549  1.00 20.00     0.013 C 
HETATM   18  C13 RAP  6544      -5.726  36.337 232.161  1.00 20.00     0.033 C 
HETATM   19  C14 RAP  6544      -5.526  34.917 231.642  1.00 20.00     0.128 C 
HETATM   20  C15 RAP  6544      -5.786  34.876 230.146  1.00 20.00     0.068 C 
HETATM   21  C16 RAP  6544      -7.232  35.060 229.699  1.00 20.00     0.152 C 
HETATM   22  C17 RAP  6544      -7.350  35.036 228.189  1.00 20.00    -0.055 C 
HETATM   23  C18 RAP  6544      -7.716  36.148 227.566  1.00 20.00     0.005 C 
HETATM   24  C19 RAP  6544      -7.845  36.289 226.109  1.00 20.00     0.000 C 
HETATM   25  C20 RAP  6544      -8.271  37.440 225.609  1.00 20.00    -0.000 C 
HETATM   26  C21 RAP  6544      -8.323  37.669 224.152  1.00 20.00    -0.004 C 
HETATM   27  C22 RAP  6544      -8.547  38.865 223.643  1.00 20.00    -0.022 C 
HETATM   28  C23 RAP  6544      -8.503  39.181 222.163  1.00 20.00     0.005 C 
HETATM   29  C24 RAP  6544      -7.492  40.300 221.988  1.00 20.00     0.020 C 
HETATM   30  C25 RAP  6544      -6.111  40.088 222.579  1.00 20.00     0.055 C 
HETATM   31  C26 RAP  6544      -5.389  41.415 222.760  1.00 20.00     0.162 C 
HETATM   32  O8  RAP  6544      -4.736  41.920 221.849  1.00 20.00    -0.295 OA
HETATM   33  C27 RAP  6544      -5.507  42.078 224.128  1.00 20.00     0.223 C 
HETATM   34  C28 RAP  6544      -4.478  41.540 225.174  1.00 20.00     0.183 C 
HETATM   35  C29 RAP  6544      -4.909  40.219 225.838  1.00 20.00    -0.056 C 
HETATM   36  C30 RAP  6544      -4.299  39.056 225.608  1.00 20.00    -0.010 C 
HETATM   37  C31 RAP  6544      -4.569  37.670 226.212  1.00 20.00     0.074 C 
HETATM   38  C32 RAP  6544      -3.509  37.355 227.267  1.00 20.00     0.136 C 
HETATM   39  O11 RAP  6544      -2.569  36.585 227.045  1.00 20.00    -0.297 OA
HETATM   40  C33 RAP  6544      -3.653  38.099 228.590  1.00 20.00     0.112 C 
HETATM   41  C34 RAP  6544      -2.323  38.597 229.119  1.00 20.00     0.142 C 
HETATM   42  C43 RAP  6544      -3.108  36.236 235.050  1.00 20.00     0.016 C 
HETATM   43  C44 RAP  6544      -7.054  33.684 227.518  1.00 20.00     0.046 C 
HETATM   44  C45 RAP  6544      -9.872  39.607 221.655  1.00 20.00     0.014 C 
HETATM   45  C46 RAP  6544      -5.276  39.123 221.731  1.00 20.00     0.018 C 
HETATM   46  C47 RAP  6544      -6.099  40.349 226.770  1.00 20.00     0.046 C 
HETATM   47  C48 RAP  6544      -4.513  36.620 225.090  1.00 20.00     0.022 C 
ENDROOT
BRANCH  41  48
HETATM   48  C35 RAP  6544      -2.328  39.728 230.166  1.00 20.00     0.012 C 
HETATM   49  C49 RAP  6544      -2.863  39.271 231.493  1.00 20.00     0.012 C 
BRANCH  48  50
HETATM   50  C36 RAP  6544      -3.084  40.962 229.680  1.00 20.00     0.011 C 
BRANCH  50  51
HETATM   51  C37 RAP  6544      -2.256  42.112 229.103  1.00 20.00    -0.012 C 
HETATM   52  C42 RAP  6544      -2.191  42.173 227.577  1.00 20.00     0.007 C 
HETATM   53  C41 RAP  6544      -1.392  43.368 227.076  1.00 20.00     0.035 C 
HETATM   54  C40 RAP  6544       0.018  43.388 227.699  1.00 20.00     0.147 C 
HETATM   55  C39 RAP  6544       0.004  43.291 229.264  1.00 20.00     0.150 C 
HETATM   56  C38 RAP  6544      -0.846  42.097 229.705  1.00 20.00     0.039 C 
BRANCH  54  57
HETATM   57  O13 RAP  6544       0.682  44.590 227.312  1.00 20.00    -0.393 OA
ATOM     58  H13 RAP  6544       1.537  44.619 227.725  1.00  0.00     0.210 HD
ENDBRANCH  54  57
BRANCH  55  59
HETATM   59  O12 RAP  6544       1.301  43.059 229.751  1.00 20.00    -0.388 OA
HETATM   60  C52 RAP  6544       1.919  44.113 230.407  1.00 20.00     0.202 C 
ENDBRANCH  55  59
ENDBRANCH  50  51
ENDBRANCH  48  50
ENDBRANCH  41  48
BRANCH  34  61
HETATM   61  O10 RAP  6544      -3.228  41.357 224.494  1.00 20.00    -0.388 OA
ATOM     62  H10 RAP  6544      -2.838  40.555 224.823  1.00  0.00     0.210 HD
ENDBRANCH  34  61
BRANCH  33  63
HETATM   63  O9  RAP  6544      -5.254  43.451 223.986  1.00 20.00    -0.380 OA
HETATM   64  C51 RAP  6544      -6.254  44.293 224.443  1.00 20.00     0.202 C 
ENDBRANCH  33  63
BRANCH  14  65
HETATM   65  O6  RAP  6544      -4.211  33.663 233.965  1.00 20.00    -0.359 OA
ATOM     66  H6  RAP  6544      -4.966  34.092 234.350  1.00  0.00     0.213 HD
ENDBRANCH  14  65
BRANCH  21  67
HETATM   67  O7  RAP  6544      -7.981  34.017 230.238  1.00 20.00    -0.386 OA
HETATM   68  C50 RAP  6544      -9.153  34.375 230.898  1.00 20.00     0.202 C 
ENDBRANCH  21  67
TORSDOF 9
ENDMDL
MODEL 4
REMARK VINA RESULT:      -7.2      3.241      7.279
REMARK  9 active torsions:
REMARK  status: ('A' for Active; 'I' for Inactive)
REMARK    1  A    between atoms: C10_14  and  O6_16 
REMARK    2  A    between atoms: C16_23  and  O7_24 
REMARK    3  A    between atoms: C27_36  and  O9_37 
REMARK    4  A    between atoms: C28_38  and  O10_39 
REMARK    5  A    between atoms: C34_47  and  C35_48 
REMARK    6  A    between atoms: C35_48  and  C36_49 
REMARK    7  A    between atoms: C36_49  and  C37_50 
REMARK    8  A    between atoms: C39_52  and  O12_53 
REMARK    9  A    between atoms: C40_54  and  O13_55 
ROOT
HETATM    1  C1  RAP  6544      -0.333  36.416 230.743  1.00 20.00     0.282 C 
HETATM    2  O1  RAP  6544      -1.129  35.279 231.050  1.00 20.00    -0.314 OA
HETATM    3  O2  RAP  6544       0.601  36.687 231.496  1.00 20.00    -0.263 OA
HETATM    4  C2  RAP  6544      -0.581  37.271 229.502  1.00 20.00     0.187 C 
HETATM    5  C3  RAP  6544      -0.498  38.753 229.832  1.00 20.00     0.035 C 
HETATM    6  C4  RAP  6544      -1.714  39.282 230.578  1.00 20.00     0.004 C 
HETATM    7  C5  RAP  6544      -2.950  38.950 229.763  1.00 20.00     0.020 C 
HETATM    8  C6  RAP  6544      -3.061  37.474 229.539  1.00 20.00     0.127 C 
HETATM    9  N7  RAP  6544      -1.856  37.037 228.816  1.00 20.00    -0.331 N 
HETATM   10  C8  RAP  6544      -1.899  36.307 227.691  1.00 20.00     0.296 C 
HETATM   11  O3  RAP  6544      -0.831  35.908 227.208  1.00 20.00    -0.264 OA
HETATM   12  C9  RAP  6544      -3.097  36.042 226.992  1.00 20.00     0.278 C 
HETATM   13  O4  RAP  6544      -3.502  36.862 226.159  1.00 20.00    -0.281 OA
HETATM   14  C10 RAP  6544      -3.922  34.763 227.225  1.00 20.00     0.238 C 
HETATM   15  O5  RAP  6544      -4.597  34.970 228.444  1.00 20.00    -0.343 OA
HETATM   16  C11 RAP  6544      -3.037  33.455 227.337  1.00 20.00     0.053 C 
HETATM   17  C12 RAP  6544      -3.862  32.265 227.878  1.00 20.00     0.013 C 
HETATM   18  C13 RAP  6544      -4.627  32.672 229.129  1.00 20.00     0.033 C 
HETATM   19  C14 RAP  6544      -5.401  33.978 228.971  1.00 20.00     0.128 C 
HETATM   20  C15 RAP  6544      -5.815  34.496 230.337  1.00 20.00     0.068 C 
HETATM   21  C16 RAP  6544      -6.891  33.704 231.071  1.00 20.00     0.152 C 
HETATM   22  C17 RAP  6544      -7.185  34.302 232.431  1.00 20.00    -0.055 C 
HETATM   23  C18 RAP  6544      -6.872  33.599 233.511  1.00 20.00     0.005 C 
HETATM   24  C19 RAP  6544      -7.068  34.056 234.894  1.00 20.00     0.000 C 
HETATM   25  C20 RAP  6544      -6.763  33.238 235.892  1.00 20.00    -0.000 C 
HETATM   26  C21 RAP  6544      -6.845  33.682 237.297  1.00 20.00    -0.004 C 
HETATM   27  C22 RAP  6544      -6.355  32.958 238.285  1.00 20.00    -0.022 C 
HETATM   28  C23 RAP  6544      -6.312  33.409 239.729  1.00 20.00     0.005 C 
HETATM   29  C24 RAP  6544      -4.860  33.328 240.166  1.00 20.00     0.020 C 
HETATM   30  C25 RAP  6544      -3.834  34.040 239.303  1.00 20.00     0.055 C 
HETATM   31  C26 RAP  6544      -2.437  33.492 239.559  1.00 20.00     0.162 C 
HETATM   32  O8  RAP  6544      -1.732  33.932 240.465  1.00 20.00    -0.295 OA
HETATM   33  C27 RAP  6544      -1.956  32.382 238.632  1.00 20.00     0.223 C 
HETATM   34  C28 RAP  6544      -1.348  32.908 237.292  1.00 20.00     0.183 C 
HETATM   35  C29 RAP  6544      -2.408  33.260 236.230  1.00 20.00    -0.056 C 
HETATM   36  C30 RAP  6544      -2.667  34.509 235.848  1.00 20.00    -0.010 C 
HETATM   37  C31 RAP  6544      -3.648  35.028 234.785  1.00 20.00     0.074 C 
HETATM   38  C32 RAP  6544      -2.879  35.416 233.524  1.00 20.00     0.136 C 
HETATM   39  O11 RAP  6544      -2.640  36.593 233.236  1.00 20.00    -0.297 OA
HETATM   40  C33 RAP  6544      -2.374  34.255 232.674  1.00 20.00     0.112 C 
HETATM   41  C34 RAP  6544      -0.964  34.481 232.169  1.00 20.00     0.142 C 
HETATM   42  C43 RAP  6544      -2.280  33.053 226.038  1.00 20.00     0.016 C 
HETATM   43  C44 RAP  6544      -7.860  35.684 232.420  1.00 20.00     0.046 C 
HETATM   44  C45 RAP  6544      -7.187  32.524 240.604  1.00 20.00     0.014 C 
HETATM   45  C46 RAP  6544      -3.873  35.557 239.514  1.00 20.00     0.018 C 
HETATM   46  C47 RAP  6544      -3.145  32.060 235.664  1.00 20.00     0.046 C 
HETATM   47  C48 RAP  6544      -4.384  36.256 235.345  1.00 20.00     0.022 C 
ENDROOT
BRANCH  41  48
HETATM   48  C35 RAP  6544      -0.147  33.260 231.700  1.00 20.00     0.012 C 
HETATM   49  C49 RAP  6544      -0.641  32.717 230.390  1.00 20.00     0.012 C 
BRANCH  48  50
HETATM   50  C36 RAP  6544      -0.103  32.157 232.755  1.00 20.00     0.011 C 
BRANCH  50  51
HETATM   51  C37 RAP  6544       1.042  32.200 233.768  1.00 20.00    -0.012 C 
HETATM   52  C42 RAP  6544       1.122  31.006 234.719  1.00 20.00     0.007 C 
HETATM   53  C41 RAP  6544       2.313  31.093 235.664  1.00 20.00     0.035 C 
HETATM   54  C40 RAP  6544       2.304  32.426 236.438  1.00 20.00     0.147 C 
HETATM   55  C39 RAP  6544       2.187  33.682 235.505  1.00 20.00     0.150 C 
HETATM   56  C38 RAP  6544       1.000  33.516 234.554  1.00 20.00     0.039 C 
BRANCH  54  57
HETATM   57  O13 RAP  6544       3.502  32.527 237.207  1.00 20.00    -0.393 OA
ATOM     58  H13 RAP  6544       3.596  31.746 237.738  1.00  0.00     0.210 HD
ENDBRANCH  54  57
BRANCH  55  59
HETATM   59  O12 RAP  6544       1.930  34.834 236.267  1.00 20.00    -0.388 OA
HETATM   60  C52 RAP  6544       1.384  35.917 235.595  1.00 20.00     0.202 C 
ENDBRANCH  55  59
ENDBRANCH  50  51
ENDBRANCH  48  50
ENDBRANCH  41  48
BRANCH  34  61
HETATM   61  O10 RAP  6544      -0.565  34.070 237.600  1.00 20.00    -0.388 OA
ATOM     62  H10 RAP  6544       0.325  33.899 237.315  1.00  0.00     0.210 HD
ENDBRANCH  34  61
BRANCH  33  63
HETATM   63  O9  RAP  6544      -0.940  31.664 239.280  1.00 20.00    -0.380 OA
HETATM   64  C51 RAP  6544      -0.341  30.666 238.529  1.00 20.00     0.202 C 
ENDBRANCH  33  63
BRANCH  14  65
HETATM   65  O6  RAP  6544      -4.846  34.607 226.144  1.00 20.00    -0.359 OA
ATOM     66  H6  RAP  6544      -4.416  34.137 225.440  1.00  0.00     0.213 HD
ENDBRANCH  14  65
BRANCH  21  67
HETATM   67  O7  RAP  6544      -8.046  33.731 230.294  1.00 20.00    -0.386 OA
HETATM   68  C50 RAP  6544      -8.701  32.516 230.117  1.00 20.00     0.202 C 
ENDBRANCH  21  67
TORSDOF 9
ENDMDL
MODEL 5
REMARK VINA RESULT:      -7.1      2.619      7.071
REMARK  9 active torsions:
REMARK  status: ('A' for Active; 'I' for Inactive)
REMARK    1  A    between atoms: C10_14  and  O6_16 
REMARK    2  A    between atoms: C16_23  and  O7_24 
REMARK    3  A    between atoms: C27_36  and  O9_37 
REMARK    4  A    between atoms: C28_38  and  O10_39 
REMARK    5  A    between atoms: C34_47  and  C35_48 
REMARK    6  A    between atoms: C35_48  and  C36_49 
REMARK    7  A    between atoms: C36_49  and  C37_50 
REMARK    8  A    between atoms: C39_52  and  O12_53 
REMARK    9  A    between atoms: C40_54  and  O13_55 
ROOT
HETATM    1  C1  RAP  6544      -1.175  31.644 228.326  1.00 20.00     0.282 C 
HETATM    2  O1  RAP  6544      -2.011  32.513 229.078  1.00 20.00    -0.314 OA
HETATM    3  O2  RAP  6544      -0.603  30.734 228.922  1.00 20.00    -0.263 OA
HETATM    4  C2  RAP  6544      -1.003  31.788 226.814  1.00 20.00     0.187 C 
HETATM    5  C3  RAP  6544       0.456  31.642 226.412  1.00 20.00     0.035 C 
HETATM    6  C4  RAP  6544       1.305  32.862 226.740  1.00 20.00     0.004 C 
HETATM    7  C5  RAP  6544       0.658  34.075 226.097  1.00 20.00     0.020 C 
HETATM    8  C6  RAP  6544      -0.745  34.253 226.588  1.00 20.00     0.127 C 
HETATM    9  N7  RAP  6544      -1.502  33.041 226.237  1.00 20.00    -0.331 N 
HETATM   10  C8  RAP  6544      -2.676  33.071 225.588  1.00 20.00     0.296 C 
HETATM   11  O3  RAP  6544      -3.283  32.004 225.422  1.00 20.00    -0.264 OA
HETATM   12  C9  RAP  6544      -3.210  34.248 225.020  1.00 20.00     0.278 C 
HETATM   13  O4  RAP  6544      -2.872  34.569 223.873  1.00 20.00    -0.281 OA
HETATM   14  C10 RAP  6544      -4.206  35.149 225.772  1.00 20.00     0.238 C 
HETATM   15  O5  RAP  6544      -3.429  35.869 226.703  1.00 20.00    -0.343 OA
HETATM   16  C11 RAP  6544      -5.326  34.341 226.545  1.00 20.00     0.053 C 
HETATM   17  C12 RAP  6544      -6.097  35.253 227.527  1.00 20.00     0.013 C 
HETATM   18  C13 RAP  6544      -5.128  36.052 228.385  1.00 20.00     0.033 C 
HETATM   19  C14 RAP  6544      -4.034  36.748 227.581  1.00 20.00     0.128 C 
HETATM   20  C15 RAP  6544      -2.921  37.196 228.511  1.00 20.00     0.068 C 
HETATM   21  C16 RAP  6544      -3.244  38.345 229.459  1.00 20.00     0.152 C 
HETATM   22  C17 RAP  6544      -2.066  38.670 230.354  1.00 20.00    -0.055 C 
HETATM   23  C18 RAP  6544      -2.181  38.445 231.656  1.00 20.00     0.005 C 
HETATM   24  C19 RAP  6544      -1.120  38.680 232.644  1.00 20.00     0.000 C 
HETATM   25  C20 RAP  6544      -1.375  38.465 233.928  1.00 20.00    -0.000 C 
HETATM   26  C21 RAP  6544      -0.318  38.589 234.949  1.00 20.00    -0.004 C 
HETATM   27  C22 RAP  6544      -0.500  38.184 236.191  1.00 20.00    -0.022 C 
HETATM   28  C23 RAP  6544       0.580  38.184 237.252  1.00 20.00     0.005 C 
HETATM   29  C24 RAP  6544       0.679  36.760 237.770  1.00 20.00     0.020 C 
HETATM   30  C25 RAP  6544       0.872  35.660 236.744  1.00 20.00     0.055 C 
HETATM   31  C26 RAP  6544       0.476  34.307 237.319  1.00 20.00     0.162 C 
HETATM   32  O8  RAP  6544       1.274  33.622 237.955  1.00 20.00    -0.295 OA
HETATM   33  C27 RAP  6544      -0.953  33.843 237.058  1.00 20.00     0.223 C 
HETATM   34  C28 RAP  6544      -1.139  33.147 235.671  1.00 20.00     0.183 C 
HETATM   35  C29 RAP  6544      -1.305  34.136 234.502  1.00 20.00    -0.056 C 
HETATM   36  C30 RAP  6544      -0.379  34.311 233.560  1.00 20.00    -0.010 C 
HETATM   37  C31 RAP  6544      -0.401  35.212 232.317  1.00 20.00     0.074 C 
HETATM   38  C32 RAP  6544      -0.675  34.366 231.074  1.00 20.00     0.136 C 
HETATM   39  O11 RAP  6544       0.219  34.052 230.283  1.00 20.00    -0.297 OA
HETATM   40  C33 RAP  6544      -2.113  33.885 230.907  1.00 20.00     0.112 C 
HETATM   41  C34 RAP  6544      -2.188  32.442 230.450  1.00 20.00     0.142 C 
HETATM   42  C43 RAP  6544      -6.315  33.547 225.642  1.00 20.00     0.016 C 
HETATM   43  C44 RAP  6544      -0.838  39.270 229.649  1.00 20.00     0.046 C 
HETATM   44  C45 RAP  6544       0.236  39.145 238.380  1.00 20.00     0.014 C 
HETATM   45  C46 RAP  6544       2.308  35.627 236.212  1.00 20.00     0.018 C 
HETATM   46  C47 RAP  6544      -2.611  34.909 234.520  1.00 20.00     0.046 C 
HETATM   47  C48 RAP  6544       0.964  35.906 232.182  1.00 20.00     0.022 C 
ENDROOT
BRANCH  41  48
HETATM   48  C35 RAP  6544      -3.505  31.671 230.666  1.00 20.00     0.012 C 
HETATM   49  C49 RAP  6544      -3.317  30.185 230.563  1.00 20.00     0.012 C 
BRANCH  48  50
HETATM   50  C36 RAP  6544      -4.608  32.138 229.719  1.00 20.00     0.011 C 
BRANCH  50  51
HETATM   51  C37 RAP  6544      -5.937  32.566 230.346  1.00 20.00    -0.012 C 
HETATM   52  C42 RAP  6544      -7.137  32.570 229.399  1.00 20.00     0.007 C 
HETATM   53  C41 RAP  6544      -8.431  32.958 230.102  1.00 20.00     0.035 C 
HETATM   54  C40 RAP  6544      -8.282  34.312 230.824  1.00 20.00     0.147 C 
HETATM   55  C39 RAP  6544      -7.040  34.367 231.781  1.00 20.00     0.150 C 
HETATM   56  C38 RAP  6544      -5.781  33.929 231.029  1.00 20.00     0.039 C 
BRANCH  54  57
HETATM   57  O13 RAP  6544      -9.464  34.571 231.578  1.00 20.00    -0.393 OA
ATOM     58  H13 RAP  6544      -9.219  34.842 232.455  1.00  0.00     0.210 HD
ENDBRANCH  54  57
BRANCH  55  59
HETATM   59  O12 RAP  6544      -6.811  35.686 232.208  1.00 20.00    -0.388 OA
HETATM   60  C52 RAP  6544      -5.507  36.150 232.129  1.00 20.00     0.202 C 
ENDBRANCH  55  59
ENDBRANCH  50  51
ENDBRANCH  48  50
ENDBRANCH  41  48
BRANCH  34  61
HETATM   61  O10 RAP  6544       0.011  32.318 235.447  1.00 20.00    -0.388 OA
ATOM     62  H10 RAP  6544      -0.237  31.649 234.820  1.00  0.00     0.210 HD
ENDBRANCH  34  61
BRANCH  33  63
HETATM   63  O9  RAP  6544      -1.304  32.897 238.033  1.00 20.00    -0.380 OA
HETATM   64  C51 RAP  6544      -2.570  32.351 237.906  1.00 20.00     0.202 C 
ENDBRANCH  33  63
BRANCH  14  65
HETATM   65  O6  RAP  6544      -4.831  36.029 224.834  1.00 20.00    -0.359 OA
ATOM     66  H6  RAP  6544      -4.390  36.870 224.862  1.00  0.00     0.213 HD
ENDBRANCH  14  65
BRANCH  21  67
HETATM   67  O7  RAP  6544      -3.559  39.460 228.686  1.00 20.00    -0.386 OA
HETATM   68  C50 RAP  6544      -4.206  40.504 229.341  1.00 20.00     0.202 C 
ENDBRANCH  21  67
TORSDOF 9
ENDMDL
MODEL 6
REMARK VINA RESULT:      -7.0      2.996     10.045
REMARK  9 active torsions:
REMARK  status: ('A' for Active; 'I' for Inactive)
REMARK    1  A    between atoms: C10_14  and  O6_16 
REMARK    2  A    between atoms: C16_23  and  O7_24 
REMARK    3  A    between atoms: C27_36  and  O9_37 
REMARK    4  A    between atoms: C28_38  and  O10_39 
REMARK    5  A    between atoms: C34_47  and  C35_48 
REMARK    6  A    between atoms: C35_48  and  C36_49 
REMARK    7  A    between atoms: C36_49  and  C37_50 
REMARK    8  A    between atoms: C39_52  and  O12_53 
REMARK    9  A    between atoms: C40_54  and  O13_55 
ROOT
HETATM    1  C1  RAP  6544      -0.596  36.089 229.087  1.00 20.00     0.282 C 
HETATM    2  O1  RAP  6544      -1.920  36.533 229.356  1.00 20.00    -0.314 OA
HETATM    3  O2  RAP  6544       0.206  36.905 228.639  1.00 20.00    -0.263 OA
HETATM    4  C2  RAP  6544      -0.145  34.658 229.375  1.00 20.00     0.187 C 
HETATM    5  C3  RAP  6544       0.684  34.104 228.226  1.00 20.00     0.035 C 
HETATM    6  C4  RAP  6544      -0.143  33.720 227.007  1.00 20.00     0.004 C 
HETATM    7  C5  RAP  6544      -1.218  32.747 227.452  1.00 20.00     0.020 C 
HETATM    8  C6  RAP  6544      -2.082  33.356 228.513  1.00 20.00     0.127 C 
HETATM    9  N7  RAP  6544      -1.219  33.699 229.653  1.00 20.00    -0.331 N 
HETATM   10  C8  RAP  6544      -1.483  33.321 230.914  1.00 20.00     0.296 C 
HETATM   11  O3  RAP  6544      -0.748  33.739 231.819  1.00 20.00    -0.264 OA
HETATM   12  C9  RAP  6544      -2.508  32.408 231.244  1.00 20.00     0.278 C 
HETATM   13  O4  RAP  6544      -2.267  31.195 231.213  1.00 20.00    -0.281 OA
HETATM   14  C10 RAP  6544      -3.922  32.867 231.647  1.00 20.00     0.238 C 
HETATM   15  O5  RAP  6544      -4.550  33.244 230.442  1.00 20.00    -0.343 OA
HETATM   16  C11 RAP  6544      -3.924  34.097 232.642  1.00 20.00     0.053 C 
HETATM   17  C12 RAP  6544      -5.336  34.715 232.766  1.00 20.00     0.013 C 
HETATM   18  C13 RAP  6544      -5.934  34.959 231.388  1.00 20.00     0.033 C 
HETATM   19  C14 RAP  6544      -5.834  33.753 230.459  1.00 20.00     0.128 C 
HETATM   20  C15 RAP  6544      -6.099  34.186 229.027  1.00 20.00     0.068 C 
HETATM   21  C16 RAP  6544      -7.530  34.591 228.690  1.00 20.00     0.152 C 
HETATM   22  C17 RAP  6544      -7.651  35.035 227.247  1.00 20.00    -0.055 C 
HETATM   23  C18 RAP  6544      -7.941  36.305 226.999  1.00 20.00     0.005 C 
HETATM   24  C19 RAP  6544      -8.063  36.890 225.656  1.00 20.00     0.000 C 
HETATM   25  C20 RAP  6544      -8.409  38.164 225.538  1.00 20.00    -0.000 C 
HETATM   26  C21 RAP  6544      -8.448  38.827 224.221  1.00 20.00    -0.004 C 
HETATM   27  C22 RAP  6544      -8.590  40.133 224.103  1.00 20.00    -0.022 C 
HETATM   28  C23 RAP  6544      -8.527  40.880 222.788  1.00 20.00     0.005 C 
HETATM   29  C24 RAP  6544      -7.441  41.932 222.937  1.00 20.00     0.020 C 
HETATM   30  C25 RAP  6544      -6.077  41.460 223.404  1.00 20.00     0.055 C 
HETATM   31  C26 RAP  6544      -5.265  42.619 223.963  1.00 20.00     0.162 C 
HETATM   32  O8  RAP  6544      -4.580  43.334 223.233  1.00 20.00    -0.295 OA
HETATM   33  C27 RAP  6544      -5.335  42.842 225.470  1.00 20.00     0.223 C 
HETATM   34  C28 RAP  6544      -4.343  41.945 226.279  1.00 20.00     0.183 C 
HETATM   35  C29 RAP  6544      -4.863  40.515 226.522  1.00 20.00    -0.056 C 
HETATM   36  C30 RAP  6544      -4.335  39.441 225.936  1.00 20.00    -0.010 C 
HETATM   37  C31 RAP  6544      -4.699  37.957 226.098  1.00 20.00     0.074 C 
HETATM   38  C32 RAP  6544      -3.661  37.269 226.983  1.00 20.00     0.136 C 
HETATM   39  O11 RAP  6544      -2.778  36.543 226.517  1.00 20.00    -0.297 OA
HETATM   40  C33 RAP  6544      -3.751  37.583 228.472  1.00 20.00     0.112 C 
HETATM   41  C34 RAP  6544      -2.389  37.809 229.097  1.00 20.00     0.142 C 
HETATM   42  C43 RAP  6544      -3.324  33.814 234.050  1.00 20.00     0.016 C 
HETATM   43  C44 RAP  6544      -7.451  33.934 226.191  1.00 20.00     0.046 C 
HETATM   44  C45 RAP  6544      -9.864  41.529 222.464  1.00 20.00     0.014 C 
HETATM   45  C46 RAP  6544      -5.312  40.746 222.285  1.00 20.00     0.018 C 
HETATM   46  C47 RAP  6544      -6.040  40.433 227.476  1.00 20.00     0.046 C 
HETATM   47  C48 RAP  6544      -4.718  37.296 224.710  1.00 20.00     0.022 C 
ENDROOT
BRANCH  41  48
HETATM   48  C35 RAP  6544      -2.313  38.566 230.438  1.00 20.00     0.012 C 
HETATM   49  C49 RAP  6544      -1.208  39.583 230.454  1.00 20.00     0.012 C 
BRANCH  48  50
HETATM   50  C36 RAP  6544      -2.187  37.619 231.628  1.00 20.00     0.011 C 
BRANCH  50  51
HETATM   51  C37 RAP  6544      -1.022  37.855 232.592  1.00 20.00    -0.012 C 
HETATM   52  C42 RAP  6544       0.254  37.073 232.283  1.00 20.00     0.007 C 
HETATM   53  C41 RAP  6544       1.383  37.394 233.253  1.00 20.00     0.035 C 
HETATM   54  C40 RAP  6544       0.933  37.179 234.712  1.00 20.00     0.147 C 
HETATM   55  C39 RAP  6544      -0.395  37.934 235.067  1.00 20.00     0.150 C 
HETATM   56  C38 RAP  6544      -1.475  37.603 234.036  1.00 20.00     0.039 C 
BRANCH  54  57
HETATM   57  O13 RAP  6544       1.969  37.620 235.589  1.00 20.00    -0.393 OA
ATOM     58  H13 RAP  6544       2.504  36.875 235.835  1.00  0.00     0.210 HD
ENDBRANCH  54  57
BRANCH  55  59
HETATM   59  O12 RAP  6544      -0.885  37.503 236.311  1.00 20.00    -0.388 OA
HETATM   60  C52 RAP  6544      -1.368  36.206 236.375  1.00 20.00     0.202 C 
ENDBRANCH  55  59
ENDBRANCH  50  51
ENDBRANCH  48  50
ENDBRANCH  41  48
BRANCH  34  61
HETATM   61  O10 RAP  6544      -3.110  41.896 225.547  1.00 20.00    -0.388 OA
ATOM     62  H10 RAP  6544      -3.042  41.032 225.159  1.00  0.00     0.210 HD
ENDBRANCH  34  61
BRANCH  33  63
HETATM   63  O9  RAP  6544      -4.988  44.173 225.744  1.00 20.00    -0.380 OA
HETATM   64  C51 RAP  6544      -6.023  44.983 226.180  1.00 20.00     0.202 C 
ENDBRANCH  33  63
BRANCH  14  65
HETATM   65  O6  RAP  6544      -4.604  31.770 232.262  1.00 20.00    -0.359 OA
ATOM     66  H6  RAP  6544      -5.533  31.964 232.287  1.00  0.00     0.213 HD
ENDBRANCH  14  65
BRANCH  21  67
HETATM   67  O7  RAP  6544      -8.348  33.485 228.905  1.00 20.00    -0.386 OA
HETATM   68  C50 RAP  6544      -9.570  33.731 229.523  1.00 20.00     0.202 C 
ENDBRANCH  21  67
TORSDOF 9
ENDMDL
MODEL 7
REMARK VINA RESULT:      -7.0      3.083      9.959
REMARK  9 active torsions:
REMARK  status: ('A' for Active; 'I' for Inactive)
REMARK    1  A    between atoms: C10_14  and  O6_16 
REMARK    2  A    between atoms: C16_23  and  O7_24 
REMARK    3  A    between atoms: C27_36  and  O9_37 
REMARK    4  A    between atoms: C28_38  and  O10_39 
REMARK    5  A    between atoms: C34_47  and  C35_48 
REMARK    6  A    between atoms: C35_48  and  C36_49 
REMARK    7  A    between atoms: C36_49  and  C37_50 
REMARK    8  A    between atoms: C39_52  and  O12_53 
REMARK    9  A    between atoms: C40_54  and  O13_55 
ROOT
HETATM    1  C1  RAP  6544      -3.458  31.660 232.989  1.00 20.00     0.282 C 
HETATM    2  O1  RAP  6544      -2.782  32.746 232.368  1.00 20.00    -0.314 OA
HETATM    3  O2  RAP  6544      -3.070  30.521 232.740  1.00 20.00    -0.263 OA
HETATM    4  C2  RAP  6544      -4.608  31.875 233.972  1.00 20.00     0.187 C 
HETATM    5  C3  RAP  6544      -5.750  30.908 233.697  1.00 20.00     0.035 C 
HETATM    6  C4  RAP  6544      -6.577  31.272 232.472  1.00 20.00     0.004 C 
HETATM    7  C5  RAP  6544      -7.069  32.698 232.640  1.00 20.00     0.020 C 
HETATM    8  C6  RAP  6544      -5.918  33.641 232.808  1.00 20.00     0.127 C 
HETATM    9  N7  RAP  6544      -5.169  33.229 234.005  1.00 20.00    -0.331 N 
HETATM   10  C8  RAP  6544      -4.846  34.075 234.996  1.00 20.00     0.296 C 
HETATM   11  O3  RAP  6544      -4.133  33.655 235.917  1.00 20.00    -0.264 OA
HETATM   12  C9  RAP  6544      -5.348  35.392 235.077  1.00 20.00     0.278 C 
HETATM   13  O4  RAP  6544      -6.440  35.588 235.625  1.00 20.00    -0.281 OA
HETATM   14  C10 RAP  6544      -4.583  36.602 234.510  1.00 20.00     0.238 C 
HETATM   15  O5  RAP  6544      -4.769  36.542 233.114  1.00 20.00    -0.343 OA
HETATM   16  C11 RAP  6544      -3.032  36.571 234.829  1.00 20.00     0.053 C 
HETATM   17  C12 RAP  6544      -2.267  37.617 233.986  1.00 20.00     0.013 C 
HETATM   18  C13 RAP  6544      -2.657  37.509 232.520  1.00 20.00     0.033 C 
HETATM   19  C14 RAP  6544      -4.165  37.473 232.292  1.00 20.00     0.128 C 
HETATM   20  C15 RAP  6544      -4.459  36.995 230.881  1.00 20.00     0.068 C 
HETATM   21  C16 RAP  6544      -4.100  37.950 229.747  1.00 20.00     0.152 C 
HETATM   22  C17 RAP  6544      -4.408  37.341 228.396  1.00 20.00    -0.055 C 
HETATM   23  C18 RAP  6544      -3.397  37.059 227.585  1.00 20.00     0.005 C 
HETATM   24  C19 RAP  6544      -3.534  36.441 226.258  1.00 20.00     0.000 C 
HETATM   25  C20 RAP  6544      -2.449  36.257 225.519  1.00 20.00    -0.000 C 
HETATM   26  C21 RAP  6544      -2.516  35.551 224.225  1.00 20.00    -0.004 C 
HETATM   27  C22 RAP  6544      -1.428  35.181 223.577  1.00 20.00    -0.022 C 
HETATM   28  C23 RAP  6544      -1.434  34.360 222.305  1.00 20.00     0.005 C 
HETATM   29  C24 RAP  6544      -0.586  33.130 222.577  1.00 20.00     0.020 C 
HETATM   30  C25 RAP  6544      -0.932  32.306 223.803  1.00 20.00     0.055 C 
HETATM   31  C26 RAP  6544       0.244  31.432 224.217  1.00 20.00     0.162 C 
HETATM   32  O8  RAP  6544       0.420  30.319 223.727  1.00 20.00    -0.295 OA
HETATM   33  C27 RAP  6544       1.182  32.003 225.276  1.00 20.00     0.223 C 
HETATM   34  C28 RAP  6544       0.683  31.775 226.739  1.00 20.00     0.183 C 
HETATM   35  C29 RAP  6544      -0.370  32.802 227.198  1.00 20.00    -0.056 C 
HETATM   36  C30 RAP  6544      -1.649  32.490 227.405  1.00 20.00    -0.010 C 
HETATM   37  C31 RAP  6544      -2.807  33.370 227.899  1.00 20.00     0.074 C 
HETATM   38  C32 RAP  6544      -3.095  33.062 229.368  1.00 20.00     0.136 C 
HETATM   39  O11 RAP  6544      -4.057  32.372 229.718  1.00 20.00    -0.297 OA
HETATM   40  C33 RAP  6544      -2.084  33.611 230.368  1.00 20.00     0.112 C 
HETATM   41  C34 RAP  6544      -1.749  32.611 231.456  1.00 20.00     0.142 C 
HETATM   42  C43 RAP  6544      -2.662  36.702 236.335  1.00 20.00     0.016 C 
HETATM   43  C44 RAP  6544      -5.899  37.134 228.081  1.00 20.00     0.046 C 
HETATM   44  C45 RAP  6544      -0.869  35.157 221.139  1.00 20.00     0.014 C 
HETATM   45  C46 RAP  6544      -2.188  31.459 223.580  1.00 20.00     0.018 C 
HETATM   46  C47 RAP  6544       0.170  34.208 227.381  1.00 20.00     0.046 C 
HETATM   47  C48 RAP  6544      -4.054  33.072 227.051  1.00 20.00     0.022 C 
ENDROOT
BRANCH  41  48
HETATM   48  C35 RAP  6544      -0.448  32.810 232.260  1.00 20.00     0.012 C 
HETATM   49  C49 RAP  6544       0.336  31.535 232.394  1.00 20.00     0.012 C 
BRANCH  48  50
HETATM   50  C36 RAP  6544      -0.707  33.426 233.633  1.00 20.00     0.011 C 
BRANCH  50  51
HETATM   51  C37 RAP  6544      -0.240  34.866 233.855  1.00 20.00    -0.012 C 
HETATM   52  C42 RAP  6544       0.589  35.469 232.722  1.00 20.00     0.007 C 
HETATM   53  C41 RAP  6544       0.977  36.916 232.991  1.00 20.00     0.035 C 
HETATM   54  C40 RAP  6544       1.699  37.051 234.346  1.00 20.00     0.147 C 
HETATM   55  C39 RAP  6544       0.901  36.413 235.537  1.00 20.00     0.150 C 
HETATM   56  C38 RAP  6544       0.507  34.976 235.190  1.00 20.00     0.039 C 
BRANCH  54  57
HETATM   57  O13 RAP  6544       1.921  38.433 234.622  1.00 20.00    -0.393 OA
ATOM     58  H13 RAP  6544       1.100  38.832 234.886  1.00  0.00     0.210 HD
ENDBRANCH  54  57
BRANCH  55  59
HETATM   59  O12 RAP  6544       1.710  36.340 236.683  1.00 20.00    -0.388 OA
HETATM   60  C52 RAP  6544       1.418  35.331 237.588  1.00 20.00     0.202 C 
ENDBRANCH  55  59
ENDBRANCH  50  51
ENDBRANCH  48  50
ENDBRANCH  41  48
BRANCH  34  61
HETATM   61  O10 RAP  6544       0.132  30.452 226.807  1.00 20.00    -0.388 OA
ATOM     62  H10 RAP  6544       0.858  29.841 226.844  1.00  0.00     0.210 HD
ENDBRANCH  34  61
BRANCH  33  63
HETATM   63  O9  RAP  6544       2.423  31.358 225.170  1.00 20.00    -0.380 OA
HETATM   64  C51 RAP  6544       3.036  31.440 223.930  1.00 20.00     0.202 C 
ENDBRANCH  33  63
BRANCH  14  65
HETATM   65  O6  RAP  6544      -5.145  37.799 235.054  1.00 20.00    -0.359 OA
ATOM     66  H6  RAP  6544      -5.568  37.591 235.879  1.00  0.00     0.213 HD
ENDBRANCH  14  65
BRANCH  21  67
HETATM   67  O7  RAP  6544      -4.850  39.111 229.914  1.00 20.00    -0.386 OA
HETATM   68  C50 RAP  6544      -4.280  40.288 229.438  1.00 20.00     0.202 C 
ENDBRANCH  21  67
TORSDOF 9
ENDMDL
MODEL 8
REMARK VINA RESULT:      -6.9      2.941      7.321
REMARK  9 active torsions:
REMARK  status: ('A' for Active; 'I' for Inactive)
REMARK    1  A    between atoms: C10_14  and  O6_16 
REMARK    2  A    between atoms: C16_23  and  O7_24 
REMARK    3  A    between atoms: C27_36  and  O9_37 
REMARK    4  A    between atoms: C28_38  and  O10_39 
REMARK    5  A    between atoms: C34_47  and  C35_48 
REMARK    6  A    between atoms: C35_48  and  C36_49 
REMARK    7  A    between atoms: C36_49  and  C37_50 
REMARK    8  A    between atoms: C39_52  and  O12_53 
REMARK    9  A    between atoms: C40_54  and  O13_55 
ROOT
HETATM    1  C1  RAP  6544      -2.807  31.302 229.550  1.00 20.00     0.282 C 
HETATM    2  O1  RAP  6544      -3.345  32.413 230.257  1.00 20.00    -0.314 OA
HETATM    3  O2  RAP  6544      -2.379  30.354 230.205  1.00 20.00    -0.263 OA
HETATM    4  C2  RAP  6544      -2.785  31.244 228.023  1.00 20.00     0.187 C 
HETATM    5  C3  RAP  6544      -1.448  30.729 227.514  1.00 20.00     0.035 C 
HETATM    6  C4  RAP  6544      -0.325  31.753 227.605  1.00 20.00     0.004 C 
HETATM    7  C5  RAP  6544      -0.767  33.006 226.872  1.00 20.00     0.020 C 
HETATM    8  C6  RAP  6544      -2.033  33.548 227.460  1.00 20.00     0.127 C 
HETATM    9  N7  RAP  6544      -3.067  32.509 227.337  1.00 20.00    -0.331 N 
HETATM   10  C8  RAP  6544      -4.275  32.735 226.798  1.00 20.00     0.296 C 
HETATM   11  O3  RAP  6544      -5.111  31.822 226.825  1.00 20.00    -0.264 OA
HETATM   12  C9  RAP  6544      -4.607  33.936 226.132  1.00 20.00     0.278 C 
HETATM   13  O4  RAP  6544      -4.343  34.050 224.929  1.00 20.00    -0.281 OA
HETATM   14  C10 RAP  6544      -5.292  35.113 226.849  1.00 20.00     0.238 C 
HETATM   15  O5  RAP  6544      -4.277  35.732 227.606  1.00 20.00    -0.343 OA
HETATM   16  C11 RAP  6544      -6.463  34.666 227.817  1.00 20.00     0.053 C 
HETATM   17  C12 RAP  6544      -6.901  35.827 228.739  1.00 20.00     0.013 C 
HETATM   18  C13 RAP  6544      -5.690  36.472 229.396  1.00 20.00     0.033 C 
HETATM   19  C14 RAP  6544      -4.574  36.813 228.414  1.00 20.00     0.128 C 
HETATM   20  C15 RAP  6544      -3.290  37.093 229.176  1.00 20.00     0.068 C 
HETATM   21  C16 RAP  6544      -3.247  38.379 229.993  1.00 20.00     0.152 C 
HETATM   22  C17 RAP  6544      -1.932  38.521 230.730  1.00 20.00    -0.055 C 
HETATM   23  C18 RAP  6544      -1.941  38.467 232.055  1.00 20.00     0.005 C 
HETATM   24  C19 RAP  6544      -0.746  38.559 232.906  1.00 20.00     0.000 C 
HETATM   25  C20 RAP  6544      -0.891  38.544 234.223  1.00 20.00    -0.000 C 
HETATM   26  C21 RAP  6544       0.279  38.532 235.122  1.00 20.00    -0.004 C 
HETATM   27  C22 RAP  6544       0.160  38.312 236.417  1.00 20.00    -0.022 C 
HETATM   28  C23 RAP  6544       1.330  38.179 237.368  1.00 20.00     0.005 C 
HETATM   29  C24 RAP  6544       1.182  36.833 238.054  1.00 20.00     0.020 C 
HETATM   30  C25 RAP  6544       1.014  35.615 237.164  1.00 20.00     0.055 C 
HETATM   31  C26 RAP  6544       0.407  34.456 237.942  1.00 20.00     0.162 C 
HETATM   32  O8  RAP  6544       1.108  33.679 238.586  1.00 20.00    -0.295 OA
HETATM   33  C27 RAP  6544      -1.109  34.303 237.871  1.00 20.00     0.223 C 
HETATM   34  C28 RAP  6544      -1.599  33.524 236.608  1.00 20.00     0.183 C 
HETATM   35  C29 RAP  6544      -1.684  34.396 235.341  1.00 20.00    -0.056 C 
HETATM   36  C30 RAP  6544      -0.858  34.257 234.306  1.00 20.00    -0.010 C 
HETATM   37  C31 RAP  6544      -0.830  35.003 232.964  1.00 20.00     0.074 C 
HETATM   38  C32 RAP  6544      -1.421  34.114 231.870  1.00 20.00     0.136 C 
HETATM   39  O11 RAP  6544      -0.713  33.524 231.049  1.00 20.00    -0.297 OA
HETATM   40  C33 RAP  6544      -2.938  33.957 231.895  1.00 20.00     0.112 C 
HETATM   41  C34 RAP  6544      -3.373  32.529 231.636  1.00 20.00     0.142 C 
HETATM   42  C43 RAP  6544      -7.696  34.026 227.115  1.00 20.00     0.016 C 
HETATM   43  C44 RAP  6544      -0.694  38.749 229.846  1.00 20.00     0.046 C 
HETATM   44  C45 RAP  6544       1.334  39.307 238.389  1.00 20.00     0.014 C 
HETATM   45  C46 RAP  6544       2.338  35.202 236.515  1.00 20.00     0.018 C 
HETATM   46  C47 RAP  6544      -2.783  35.443 235.377  1.00 20.00     0.046 C 
HETATM   47  C48 RAP  6544       0.627  35.352 232.618  1.00 20.00     0.022 C 
ENDROOT
BRANCH  41  48
HETATM   48  C35 RAP  6544      -4.791  32.103 232.067  1.00 20.00     0.012 C 
HETATM   49  C49 RAP  6544      -5.822  32.425 231.023  1.00 20.00     0.012 C 
BRANCH  48  50
HETATM   50  C36 RAP  6544      -5.188  32.702 233.414  1.00 20.00     0.011 C 
BRANCH  50  51
HETATM   51  C37 RAP  6544      -6.324  33.726 233.419  1.00 20.00    -0.012 C 
HETATM   52  C42 RAP  6544      -5.888  35.191 233.436  1.00 20.00     0.007 C 
HETATM   53  C41 RAP  6544      -7.069  36.151 233.392  1.00 20.00     0.035 C 
HETATM   54  C40 RAP  6544      -8.067  35.850 234.528  1.00 20.00     0.147 C 
HETATM   55  C39 RAP  6544      -8.517  34.348 234.573  1.00 20.00     0.150 C 
HETATM   56  C38 RAP  6544      -7.289  33.435 234.576  1.00 20.00     0.039 C 
BRANCH  54  57
HETATM   57  O13 RAP  6544      -9.218  36.677 234.368  1.00 20.00    -0.393 OA
ATOM     58  H13 RAP  6544      -8.943  37.539 234.080  1.00  0.00     0.210 HD
ENDBRANCH  54  57
BRANCH  55  59
HETATM   59  O12 RAP  6544      -9.214  34.082 235.764  1.00 20.00    -0.388 OA
HETATM   60  C52 RAP  6544      -8.893  32.907 236.425  1.00 20.00     0.202 C 
ENDBRANCH  55  59
ENDBRANCH  50  51
ENDBRANCH  48  50
ENDBRANCH  41  48
BRANCH  34  61
HETATM   61  O10 RAP  6544      -0.688  32.438 236.390  1.00 20.00    -0.388 OA
ATOM     62  H10 RAP  6544       0.181  32.809 236.294  1.00  0.00     0.210 HD
ENDBRANCH  34  61
BRANCH  33  63
HETATM   63  O9  RAP  6544      -1.538  33.569 238.987  1.00 20.00    -0.380 OA
HETATM   64  C51 RAP  6544      -2.676  34.049 239.616  1.00 20.00     0.202 C 
ENDBRANCH  33  63
BRANCH  14  65
HETATM   65  O6  RAP  6544      -5.819  36.008 225.865  1.00 20.00    -0.359 OA
ATOM     66  H6  RAP  6544      -6.732  36.179 226.065  1.00  0.00     0.213 HD
ENDBRANCH  14  65
BRANCH  21  67
HETATM   67  O7  RAP  6544      -3.404  39.448 229.115  1.00 20.00    -0.386 OA
HETATM   68  C50 RAP  6544      -4.007  40.591 229.633  1.00 20.00     0.202 C 
ENDBRANCH  21  67
TORSDOF 9
ENDMDL
MODEL 9
REMARK VINA RESULT:      -6.8      3.295      9.373
REMARK  9 active torsions:
REMARK  status: ('A' for Active; 'I' for Inactive)
REMARK    1  A    between atoms: C10_14  and  O6_16 
REMARK    2  A    between atoms: C16_23  and  O7_24 
REMARK    3  A    between atoms: C27_36  and  O9_37 
REMARK    4  A    between atoms: C28_38  and  O10_39 
REMARK    5  A    between atoms: C34_47  and  C35_48 
REMARK    6  A    between atoms: C35_48  and  C36_49 
REMARK    7  A    between atoms: C36_49  and  C37_50 
REMARK    8  A    between atoms: C39_52  and  O12_53 
REMARK    9  A    between atoms: C40_54  and  O13_55 
ROOT
HETATM    1  C1  RAP  6544      -0.304  32.900 233.417  1.00 20.00     0.282 C 
HETATM    2  O1  RAP  6544      -1.035  33.694 232.491  1.00 20.00    -0.314 OA
HETATM    3  O2  RAP  6544       0.859  32.614 233.141  1.00 20.00    -0.263 OA
HETATM    4  C2  RAP  6544      -0.907  32.436 234.742  1.00 20.00     0.187 C 
HETATM    5  C3  RAP  6544      -0.576  30.976 235.013  1.00 20.00     0.035 C 
HETATM    6  C4  RAP  6544      -1.386  30.000 234.171  1.00 20.00     0.004 C 
HETATM    7  C5  RAP  6544      -2.858  30.298 234.387  1.00 20.00     0.020 C 
HETATM    8  C6  RAP  6544      -3.175  31.714 234.017  1.00 20.00     0.127 C 
HETATM    9  N7  RAP  6544      -2.359  32.594 234.868  1.00 20.00    -0.331 N 
HETATM   10  C8  RAP  6544      -2.873  33.609 235.581  1.00 20.00     0.296 C 
HETATM   11  O3  RAP  6544      -2.093  34.352 236.192  1.00 20.00    -0.264 OA
HETATM   12  C9  RAP  6544      -4.262  33.817 235.731  1.00 20.00     0.278 C 
HETATM   13  O4  RAP  6544      -4.865  33.226 236.635  1.00 20.00    -0.281 OA
HETATM   14  C10 RAP  6544      -5.058  34.759 234.809  1.00 20.00     0.238 C 
HETATM   15  O5  RAP  6544      -5.224  34.050 233.603  1.00 20.00    -0.343 OA
HETATM   16  C11 RAP  6544      -4.315  36.125 234.512  1.00 20.00     0.053 C 
HETATM   17  C12 RAP  6544      -4.992  36.889 233.351  1.00 20.00     0.013 C 
HETATM   18  C13 RAP  6544      -5.211  35.967 232.162  1.00 20.00     0.033 C 
HETATM   19  C14 RAP  6544      -5.868  34.641 232.533  1.00 20.00     0.128 C 
HETATM   20  C15 RAP  6544      -5.711  33.653 231.390  1.00 20.00     0.068 C 
HETATM   21  C16 RAP  6544      -6.514  33.937 230.126  1.00 20.00     0.152 C 
HETATM   22  C17 RAP  6544      -6.240  32.902 229.055  1.00 20.00    -0.055 C 
HETATM   23  C18 RAP  6544      -5.622  33.289 227.947  1.00 20.00     0.005 C 
HETATM   24  C19 RAP  6544      -5.261  32.399 226.834  1.00 20.00     0.000 C 
HETATM   25  C20 RAP  6544      -4.690  32.916 225.755  1.00 20.00    -0.000 C 
HETATM   26  C21 RAP  6544      -4.218  32.056 224.654  1.00 20.00    -0.004 C 
HETATM   27  C22 RAP  6544      -3.471  32.527 223.674  1.00 20.00    -0.022 C 
HETATM   28  C23 RAP  6544      -2.866  31.674 222.579  1.00 20.00     0.005 C 
HETATM   29  C24 RAP  6544      -1.368  31.921 222.613  1.00 20.00     0.020 C 
HETATM   30  C25 RAP  6544      -0.665  31.741 223.946  1.00 20.00     0.055 C 
HETATM   31  C26 RAP  6544       0.674  32.465 223.954  1.00 20.00     0.162 C 
HETATM   32  O8  RAP  6544       1.696  31.927 223.534  1.00 20.00    -0.295 OA
HETATM   33  C27 RAP  6544       0.683  33.881 224.518  1.00 20.00     0.223 C 
HETATM   34  C28 RAP  6544       0.809  33.932 226.075  1.00 20.00     0.183 C 
HETATM   35  C29 RAP  6544      -0.526  33.709 226.809  1.00 20.00    -0.056 C 
HETATM   36  C30 RAP  6544      -0.793  32.611 227.516  1.00 20.00    -0.010 C 
HETATM   37  C31 RAP  6544      -2.040  32.250 228.336  1.00 20.00     0.074 C 
HETATM   38  C32 RAP  6544      -1.749  32.439 229.824  1.00 20.00     0.136 C 
HETATM   39  O11 RAP  6544      -1.525  31.485 230.575  1.00 20.00    -0.297 OA
HETATM   40  C33 RAP  6544      -1.694  33.883 230.308  1.00 20.00     0.112 C 
HETATM   41  C34 RAP  6544      -0.548  34.126 231.269  1.00 20.00     0.142 C 
HETATM   42  C43 RAP  6544      -4.120  37.057 235.744  1.00 20.00     0.016 C 
HETATM   43  C44 RAP  6544      -6.746  31.481 229.355  1.00 20.00     0.046 C 
HETATM   44  C45 RAP  6544      -3.442  32.043 221.220  1.00 20.00     0.014 C 
HETATM   45  C46 RAP  6544      -0.488  30.260 224.296  1.00 20.00     0.018 C 
HETATM   46  C47 RAP  6544      -1.524  34.840 226.646  1.00 20.00     0.046 C 
HETATM   47  C48 RAP  6544      -2.409  30.783 228.060  1.00 20.00     0.022 C 
ENDROOT
BRANCH  41  48
HETATM   48  C35 RAP  6544      -0.071  35.575 231.493  1.00 20.00     0.012 C 
HETATM   49  C49 RAP  6544      -0.631  36.168 232.754  1.00 20.00     0.012 C 
BRANCH  48  50
HETATM   50  C36 RAP  6544      -0.376  36.473 230.297  1.00 20.00     0.011 C 
BRANCH  50  51
HETATM   51  C37 RAP  6544      -1.478  37.520 230.468  1.00 20.00    -0.012 C 
HETATM   52  C42 RAP  6544      -2.641  37.416 229.482  1.00 20.00     0.007 C 
HETATM   53  C41 RAP  6544      -3.721  38.457 229.743  1.00 20.00     0.035 C 
HETATM   54  C40 RAP  6544      -3.123  39.878 229.757  1.00 20.00     0.147 C 
HETATM   55  C39 RAP  6544      -1.902  40.025 230.730  1.00 20.00     0.150 C 
HETATM   56  C38 RAP  6544      -0.873  38.929 230.445  1.00 20.00     0.039 C 
BRANCH  54  57
HETATM   57  O13 RAP  6544      -4.137  40.807 230.138  1.00 20.00    -0.393 OA
ATOM     58  H13 RAP  6544      -3.792  41.385 230.809  1.00  0.00     0.210 HD
ENDBRANCH  54  57
BRANCH  55  59
HETATM   59  O12 RAP  6544      -1.249  41.251 230.513  1.00 20.00    -0.388 OA
HETATM   60  C52 RAP  6544      -0.631  41.419 229.284  1.00 20.00     0.202 C 
ENDBRANCH  55  59
ENDBRANCH  50  51
ENDBRANCH  48  50
ENDBRANCH  41  48
BRANCH  34  61
HETATM   61  O10 RAP  6544       1.753  32.924 226.464  1.00 20.00    -0.388 OA
ATOM     62  H10 RAP  6544       2.548  33.067 225.965  1.00  0.00     0.210 HD
ENDBRANCH  34  61
BRANCH  33  63
HETATM   63  O9  RAP  6544       1.796  34.562 224.002  1.00 20.00    -0.380 OA
HETATM   64  C51 RAP  6544       1.768  35.941 224.137  1.00 20.00     0.202 C 
ENDBRANCH  33  63
BRANCH  14  65
HETATM   65  O6  RAP  6544      -6.321  35.041 235.420  1.00 20.00    -0.359 OA
ATOM     66  H6  RAP  6544      -6.819  34.235 235.476  1.00  0.00     0.213 HD
ENDBRANCH  14  65
BRANCH  21  67
HETATM   67  O7  RAP  6544      -7.865  33.907 230.464  1.00 20.00    -0.386 OA
HETATM   68  C50 RAP  6544      -8.654  34.930 229.946  1.00 20.00     0.202 C 
ENDBRANCH  21  67
TORSDOF 9
ENDMDL
