MODEL 1
REMARK VINA RESULT:      -7.1      0.000      0.000
REMARK  7 active torsions:
REMARK  status: ('A' for Active; 'I' for Inactive)
REMARK    1  A    between atoms: C32_3  and  C33_2 
REMARK    2  A    between atoms: C30_4  and  C32_3 
REMARK    3  A    between atoms: C21_14  and  C9_18 
REMARK    4  A    between atoms: C7_20  and  S10_27 
REMARK    5  A    between atoms: C4_23  and  O3_24 
REMARK    6  A    between atoms: C2_25  and  O3_24 
REMARK    7  A    between atoms: N14_30  and  S10_27 
ROOT
HETATM    1  C9  VIA  7634      -0.764  37.628 230.797  1.00 20.00     0.043 A 
HETATM    2  C8  VIA  7634      -1.098  37.556 232.161  1.00 20.00     0.043 A 
HETATM    3  C7  VIA  7634      -0.460  36.658 233.035  1.00 20.00     0.080 A 
HETATM    4  C6  VIA  7634       0.513  35.845 232.486  1.00 20.00     0.028 A 
HETATM    5  C5  VIA  7634       0.834  35.906 231.174  1.00 20.00     0.039 A 
HETATM    6  C4  VIA  7634       0.191  36.812 230.293  1.00 20.00     0.082 A 
ENDROOT
BRANCH   1   7
HETATM    7  C21 VIA  7634      -1.558  38.633 230.063  1.00 20.00     0.121 A 
HETATM    8  N22 VIA  7634      -2.835  38.175 229.754  1.00 20.00    -0.307 N 
HETATM    9  C23 VIA  7634      -3.772  38.957 229.073  1.00 20.00     0.277 A 
ATOM     10  H22 VIA  7634      -3.098  37.230 230.035  1.00  0.00     0.170 HD
HETATM   11  O27 VIA  7634      -4.887  38.503 228.826  1.00 20.00    -0.265 OA
HETATM   12  C24 VIA  7634      -3.252  40.236 228.744  1.00 20.00     0.147 A 
HETATM   13  N28 VIA  7634      -3.826  41.307 228.084  1.00 20.00    -0.289 N 
HETATM   14  C25 VIA  7634      -1.938  40.612 229.094  1.00 20.00     0.092 A 
HETATM   15  C31 VIA  7634      -5.168  41.364 227.540  1.00 20.00     0.178 C 
HETATM   16  N29 VIA  7634      -2.926  42.312 228.018  1.00 20.00    -0.300 N 
HETATM   17  C30 VIA  7634      -1.763  41.959 228.610  1.00 20.00     0.055 A 
ATOM     18  H29 VIA  7634      -3.101  43.217 227.580  1.00  0.00     0.187 HD
HETATM   19  N26 VIA  7634      -1.048  39.812 229.775  1.00 20.00    -0.338 N 
ATOM     20  H26 VIA  7634      -0.102  40.099 230.027  1.00  0.00     0.167 HD
BRANCH  17  21
HETATM   21  C32 VIA  7634      -0.580  42.803 228.718  1.00 20.00     0.061 C 
BRANCH  21  22
HETATM   22  C33 VIA  7634       0.481  42.408 227.617  1.00 20.00     0.002 C 
HETATM   23  C34 VIA  7634       1.927  42.421 228.055  1.00 20.00     0.005 C 
ENDBRANCH  21  22
ENDBRANCH  17  21
ENDBRANCH   1   7
BRANCH   6  24
HETATM   24  O3  VIA  7634       0.437  36.943 229.008  1.00 20.00    -0.351 OA
BRANCH  24  25
HETATM   25  C2  VIA  7634       0.270  35.796 228.102  1.00 20.00     0.171 C 
HETATM   26  C1  VIA  7634      -1.117  35.871 227.581  1.00 20.00     0.034 C 
ENDBRANCH  24  25
ENDBRANCH   6  24
BRANCH   3  27
HETATM   27  S10 VIA  7634      -0.874  36.582 234.712  1.00 20.00     0.261 S 
HETATM   28  O11 VIA  7634      -1.860  37.465 235.047  1.00 20.00    -0.200 OA
HETATM   29  O12 VIA  7634      -1.116  35.245 235.036  1.00 20.00    -0.200 OA
BRANCH  27  30
HETATM   30  N14 VIA  7634       0.449  37.073 235.507  1.00 20.00    -0.303 N 
HETATM   31  C15 VIA  7634       1.054  38.357 235.283  1.00 20.00     0.165 C 
HETATM   32  C16 VIA  7634       1.448  39.044 236.606  1.00 20.00     0.292 C 
HETATM   33  N17 VIA  7634       2.370  38.201 237.348  1.00 20.00     0.087 N 
HETATM   34  C18 VIA  7634       1.889  36.835 237.545  1.00 20.00     0.292 C 
HETATM   35  C20 VIA  7634       2.899  38.835 238.535  1.00 20.00     0.310 C 
HETATM   36  C19 VIA  7634       1.321  36.198 236.252  1.00 20.00     0.165 C 
ENDBRANCH  27  30
ENDBRANCH   3  27
TORSDOF 7
ENDMDL
MODEL 2
REMARK VINA RESULT:      -7.0      1.714      2.207
REMARK  7 active torsions:
REMARK  status: ('A' for Active; 'I' for Inactive)
REMARK    1  A    between atoms: C32_3  and  C33_2 
REMARK    2  A    between atoms: C30_4  and  C32_3 
REMARK    3  A    between atoms: C21_14  and  C9_18 
REMARK    4  A    between atoms: C7_20  and  S10_27 
REMARK    5  A    between atoms: C4_23  and  O3_24 
REMARK    6  A    between atoms: C2_25  and  O3_24 
REMARK    7  A    between atoms: N14_30  and  S10_27 
ROOT
HETATM    1  C9  VIA  7634      -0.658  37.381 231.881  1.00 20.00     0.043 A 
HETATM    2  C8  VIA  7634      -0.322  37.938 233.127  1.00 20.00     0.043 A 
HETATM    3  C7  VIA  7634       0.375  37.206 234.105  1.00 20.00     0.080 A 
HETATM    4  C6  VIA  7634       0.710  35.905 233.782  1.00 20.00     0.028 A 
HETATM    5  C5  VIA  7634       0.383  35.361 232.587  1.00 20.00     0.039 A 
HETATM    6  C4  VIA  7634      -0.317  36.101 231.601  1.00 20.00     0.082 A 
ENDROOT
BRANCH   1   7
HETATM    7  C21 VIA  7634      -1.389  38.322 231.010  1.00 20.00     0.121 A 
HETATM    8  N22 VIA  7634      -2.658  37.856 230.676  1.00 20.00    -0.307 N 
HETATM    9  C23 VIA  7634      -3.540  38.583 229.871  1.00 20.00     0.277 A 
ATOM     10  H22 VIA  7634      -2.955  36.949 231.033  1.00  0.00     0.170 HD
HETATM   11  O27 VIA  7634      -4.649  38.125 229.608  1.00 20.00    -0.265 OA
HETATM   12  C24 VIA  7634      -2.975  39.815 229.448  1.00 20.00     0.147 A 
HETATM   13  N28 VIA  7634      -3.488  40.824 228.656  1.00 20.00    -0.289 N 
HETATM   14  C25 VIA  7634      -1.673  40.201 229.832  1.00 20.00     0.092 A 
HETATM   15  C31 VIA  7634      -4.799  40.849 228.036  1.00 20.00     0.178 C 
HETATM   16  N29 VIA  7634      -2.565  41.803 228.542  1.00 20.00    -0.300 N 
HETATM   17  C30 VIA  7634      -1.443  41.491 229.230  1.00 20.00     0.055 A 
ATOM     18  H29 VIA  7634      -2.697  42.663 228.009  1.00  0.00     0.187 HD
HETATM   19  N26 VIA  7634      -0.839  39.458 230.637  1.00 20.00    -0.338 N 
ATOM     20  H26 VIA  7634       0.098  39.753 230.911  1.00  0.00     0.167 HD
BRANCH  17  21
HETATM   21  C32 VIA  7634      -0.249  42.323 229.321  1.00 20.00     0.061 C 
BRANCH  21  22
HETATM   22  C33 VIA  7634       0.811  41.882 228.236  1.00 20.00     0.002 C 
HETATM   23  C34 VIA  7634       2.135  42.609 228.273  1.00 20.00     0.005 C 
ENDBRANCH  21  22
ENDBRANCH  17  21
ENDBRANCH   1   7
BRANCH   6  24
HETATM   24  O3  VIA  7634      -0.675  35.660 230.415  1.00 20.00    -0.351 OA
BRANCH  24  25
HETATM   25  C2  VIA  7634       0.342  35.422 229.378  1.00 20.00     0.171 C 
HETATM   26  C1  VIA  7634      -0.016  36.294 228.232  1.00 20.00     0.034 C 
ENDBRANCH  24  25
ENDBRANCH   6  24
BRANCH   3  27
HETATM   27  S10 VIA  7634       0.789  37.903 235.631  1.00 20.00     0.261 S 
HETATM   28  O11 VIA  7634       1.793  38.822 235.531  1.00 20.00    -0.200 OA
HETATM   29  O12 VIA  7634      -0.389  38.349 236.236  1.00 20.00    -0.200 OA
BRANCH  27  30
HETATM   30  N14 VIA  7634       1.391  36.686 236.514  1.00 20.00    -0.303 N 
HETATM   31  C15 VIA  7634       0.565  35.846 237.338  1.00 20.00     0.165 C 
HETATM   32  C16 VIA  7634       0.938  34.356 237.195  1.00 20.00     0.292 C 
HETATM   33  N17 VIA  7634       2.332  34.157 237.551  1.00 20.00     0.087 N 
HETATM   34  C18 VIA  7634       3.253  35.039 236.837  1.00 20.00     0.292 C 
HETATM   35  C20 VIA  7634       2.724  32.766 237.581  1.00 20.00     0.310 C 
HETATM   36  C19 VIA  7634       2.791  36.517 236.820  1.00 20.00     0.165 C 
ENDBRANCH  27  30
ENDBRANCH   3  27
TORSDOF 7
ENDMDL
MODEL 3
REMARK VINA RESULT:      -6.8      2.248      3.394
REMARK  7 active torsions:
REMARK  status: ('A' for Active; 'I' for Inactive)
REMARK    1  A    between atoms: C32_3  and  C33_2 
REMARK    2  A    between atoms: C30_4  and  C32_3 
REMARK    3  A    between atoms: C21_14  and  C9_18 
REMARK    4  A    between atoms: C7_20  and  S10_27 
REMARK    5  A    between atoms: C4_23  and  O3_24 
REMARK    6  A    between atoms: C2_25  and  O3_24 
REMARK    7  A    between atoms: N14_30  and  S10_27 
ROOT
HETATM    1  C9  VIA  7634      -2.557  38.143 232.909  1.00 20.00     0.043 A 
HETATM    2  C8  VIA  7634      -1.199  37.915 233.197  1.00 20.00     0.043 A 
HETATM    3  C7  VIA  7634      -0.789  37.253 234.368  1.00 20.00     0.080 A 
HETATM    4  C6  VIA  7634      -1.789  36.840 235.227  1.00 20.00     0.028 A 
HETATM    5  C5  VIA  7634      -3.096  37.063 234.959  1.00 20.00     0.039 A 
HETATM    6  C4  VIA  7634      -3.508  37.729 233.777  1.00 20.00     0.082 A 
ENDROOT
BRANCH   1   7
HETATM    7  C21 VIA  7634      -2.761  38.857 231.633  1.00 20.00     0.121 A 
HETATM    8  N22 VIA  7634      -3.743  38.262 230.846  1.00 20.00    -0.307 N 
HETATM    9  C23 VIA  7634      -4.119  38.770 229.599  1.00 20.00     0.277 A 
ATOM     10  H22 VIA  7634      -4.207  37.423 231.193  1.00  0.00     0.170 HD
HETATM   11  O27 VIA  7634      -4.994  38.206 228.945  1.00 20.00    -0.265 OA
HETATM   12  C24 VIA  7634      -3.377  39.930 229.256  1.00 20.00     0.147 A 
HETATM   13  N28 VIA  7634      -3.423  40.739 228.136  1.00 20.00    -0.289 N 
HETATM   14  C25 VIA  7634      -2.392  40.459 230.117  1.00 20.00     0.092 A 
HETATM   15  C31 VIA  7634      -4.290  40.569 226.987  1.00 20.00     0.178 C 
HETATM   16  N29 VIA  7634      -2.518  41.731 228.276  1.00 20.00    -0.300 N 
HETATM   17  C30 VIA  7634      -1.859  41.622 229.452  1.00 20.00     0.055 A 
ATOM     18  H29 VIA  7634      -2.353  42.465 227.587  1.00  0.00     0.187 HD
HETATM   19  N26 VIA  7634      -2.058  39.932 231.345  1.00 20.00    -0.338 N 
ATOM     20  H26 VIA  7634      -1.347  40.329 231.960  1.00  0.00     0.167 HD
BRANCH  17  21
HETATM   21  C32 VIA  7634      -0.816  42.525 229.923  1.00 20.00     0.061 C 
BRANCH  21  22
HETATM   22  C33 VIA  7634       0.266  42.750 228.796  1.00 20.00     0.002 C 
HETATM   23  C34 VIA  7634       1.668  43.049 229.275  1.00 20.00     0.005 C 
ENDBRANCH  21  22
ENDBRANCH  17  21
ENDBRANCH   1   7
BRANCH   6  24
HETATM   24  O3  VIA  7634      -4.750  37.988 233.431  1.00 20.00    -0.351 OA
BRANCH  24  25
HETATM   25  C2  VIA  7634      -5.861  37.254 234.060  1.00 20.00     0.171 C 
HETATM   26  C1  VIA  7634      -6.644  38.255 234.826  1.00 20.00     0.034 C 
ENDBRANCH  24  25
ENDBRANCH   6  24
BRANCH   3  27
HETATM   27  S10 VIA  7634       0.881  36.970 234.708  1.00 20.00     0.261 S 
HETATM   28  O11 VIA  7634       1.197  35.642 234.712  1.00 20.00    -0.200 OA
HETATM   29  O12 VIA  7634       1.638  37.775 233.853  1.00 20.00    -0.200 OA
BRANCH  27  30
HETATM   30  N14 VIA  7634       1.106  37.483 236.228  1.00 20.00    -0.303 N 
HETATM   31  C15 VIA  7634       1.100  36.589 237.354  1.00 20.00     0.165 C 
HETATM   32  C16 VIA  7634       2.247  36.898 238.338  1.00 20.00     0.292 C 
HETATM   33  N17 VIA  7634       2.140  38.268 238.810  1.00 20.00     0.087 N 
HETATM   34  C18 VIA  7634       2.038  39.254 237.737  1.00 20.00     0.292 C 
HETATM   35  C20 VIA  7634       3.095  38.594 239.846  1.00 20.00     0.310 C 
HETATM   36  C19 VIA  7634       1.013  38.861 236.644  1.00 20.00     0.165 C 
ENDBRANCH  27  30
ENDBRANCH   3  27
TORSDOF 7
ENDMDL
MODEL 4
REMARK VINA RESULT:      -6.8      3.348      6.532
REMARK  7 active torsions:
REMARK  status: ('A' for Active; 'I' for Inactive)
REMARK    1  A    between atoms: C32_3  and  C33_2 
REMARK    2  A    between atoms: C30_4  and  C32_3 
REMARK    3  A    between atoms: C21_14  and  C9_18 
REMARK    4  A    between atoms: C7_20  and  S10_27 
REMARK    5  A    between atoms: C4_23  and  O3_24 
REMARK    6  A    between atoms: C2_25  and  O3_24 
REMARK    7  A    between atoms: N14_30  and  S10_27 
ROOT
HETATM    1  C9  VIA  7634       1.443  36.630 235.348  1.00 20.00     0.043 A 
HETATM    2  C8  VIA  7634       1.603  35.236 235.442  1.00 20.00     0.043 A 
HETATM    3  C7  VIA  7634       2.337  34.641 236.483  1.00 20.00     0.080 A 
HETATM    4  C6  VIA  7634       2.899  35.496 237.412  1.00 20.00     0.028 A 
HETATM    5  C5  VIA  7634       2.754  36.838 237.323  1.00 20.00     0.039 A 
HETATM    6  C4  VIA  7634       2.013  37.437 236.273  1.00 20.00     0.082 A 
ENDROOT
BRANCH   1   7
HETATM    7  C21 VIA  7634       0.642  37.039 234.178  1.00 20.00     0.121 A 
HETATM    8  N22 VIA  7634      -0.415  37.875 234.526  1.00 20.00    -0.307 N 
HETATM    9  C23 VIA  7634      -1.302  38.401 233.582  1.00 20.00     0.277 A 
ATOM     10  H22 VIA  7634      -0.547  38.113 235.508  1.00  0.00     0.170 HD
HETATM   11  O27 VIA  7634      -2.219  39.135 233.945  1.00 20.00    -0.265 OA
HETATM   12  C24 VIA  7634      -0.991  37.968 232.267  1.00 20.00     0.147 A 
HETATM   13  N28 VIA  7634      -1.596  38.242 231.054  1.00 20.00    -0.289 N 
HETATM   14  C25 VIA  7634       0.101  37.112 232.009  1.00 20.00     0.092 A 
HETATM   15  C31 VIA  7634      -2.761  39.078 230.844  1.00 20.00     0.178 C 
HETATM   16  N29 VIA  7634      -0.926  37.596 230.076  1.00 20.00    -0.300 N 
HETATM   17  C30 VIA  7634       0.113  36.894 230.584  1.00 20.00     0.055 A 
ATOM     18  H29 VIA  7634      -1.170  37.633 229.086  1.00  0.00     0.187 HD
HETATM   19  N26 VIA  7634       0.959  36.623 232.969  1.00 20.00    -0.338 N 
ATOM     20  H26 VIA  7634       1.748  36.009 232.768  1.00  0.00     0.167 HD
BRANCH  17  21
HETATM   21  C32 VIA  7634       1.043  36.083 229.809  1.00 20.00     0.061 C 
BRANCH  21  22
HETATM   22  C33 VIA  7634       0.282  34.886 229.114  1.00 20.00     0.002 C 
HETATM   23  C34 VIA  7634      -0.290  33.838 230.040  1.00 20.00     0.005 C 
ENDBRANCH  21  22
ENDBRANCH  17  21
ENDBRANCH   1   7
BRANCH   6  24
HETATM   24  O3  VIA  7634       1.816  38.727 236.107  1.00 20.00    -0.351 OA
BRANCH  24  25
HETATM   25  C2  VIA  7634       1.789  39.626 237.271  1.00 20.00     0.171 C 
HETATM   26  C1  VIA  7634       0.414  39.554 237.825  1.00 20.00     0.034 C 
ENDBRANCH  24  25
ENDBRANCH   6  24
BRANCH   3  27
HETATM   27  S10 VIA  7634       2.522  32.926 236.593  1.00 20.00     0.261 S 
HETATM   28  O11 VIA  7634       3.710  32.494 236.078  1.00 20.00    -0.200 OA
HETATM   29  O12 VIA  7634       2.254  32.547 237.911  1.00 20.00    -0.200 OA
BRANCH  27  30
HETATM   30  N14 VIA  7634       1.373  32.305 235.635  1.00 20.00    -0.303 N 
HETATM   31  C15 VIA  7634       0.076  31.930 236.126  1.00 20.00     0.165 C 
HETATM   32  C16 VIA  7634      -1.052  32.394 235.182  1.00 20.00     0.292 C 
HETATM   33  N17 VIA  7634      -0.856  31.827 233.859  1.00 20.00     0.087 N 
HETATM   34  C18 VIA  7634       0.475  32.066 233.307  1.00 20.00     0.292 C 
HETATM   35  C20 VIA  7634      -1.949  32.098 232.951  1.00 20.00     0.310 C 
HETATM   36  C19 VIA  7634       1.614  31.774 234.315  1.00 20.00     0.165 C 
ENDBRANCH  27  30
ENDBRANCH   3  27
TORSDOF 7
ENDMDL
MODEL 5
REMARK VINA RESULT:      -6.7      3.711      6.604
REMARK  7 active torsions:
REMARK  status: ('A' for Active; 'I' for Inactive)
REMARK    1  A    between atoms: C32_3  and  C33_2 
REMARK    2  A    between atoms: C30_4  and  C32_3 
REMARK    3  A    between atoms: C21_14  and  C9_18 
REMARK    4  A    between atoms: C7_20  and  S10_27 
REMARK    5  A    between atoms: C4_23  and  O3_24 
REMARK    6  A    between atoms: C2_25  and  O3_24 
REMARK    7  A    between atoms: N14_30  and  S10_27 
ROOT
HETATM    1  C9  VIA  7634       0.877  36.619 235.790  1.00 20.00     0.043 A 
HETATM    2  C8  VIA  7634       1.100  35.231 235.844  1.00 20.00     0.043 A 
HETATM    3  C7  VIA  7634       2.287  34.689 236.370  1.00 20.00     0.080 A 
HETATM    4  C6  VIA  7634       3.228  35.590 236.829  1.00 20.00     0.028 A 
HETATM    5  C5  VIA  7634       3.022  36.925 236.773  1.00 20.00     0.039 A 
HETATM    6  C4  VIA  7634       1.825  37.471 236.245  1.00 20.00     0.082 A 
ENDROOT
BRANCH   1   7
HETATM    7  C21 VIA  7634      -0.429  36.968 235.198  1.00 20.00     0.121 A 
HETATM    8  N22 VIA  7634      -1.491  36.373 235.871  1.00 20.00    -0.307 N 
HETATM    9  C23 VIA  7634      -2.824  36.570 235.500  1.00 20.00     0.277 A 
ATOM     10  H22 VIA  7634      -1.289  35.769 236.667  1.00  0.00     0.170 HD
HETATM   11  O27 VIA  7634      -3.724  36.020 236.130  1.00 20.00    -0.265 OA
HETATM   12  C24 VIA  7634      -2.937  37.424 234.371  1.00 20.00     0.147 A 
HETATM   13  N28 VIA  7634      -4.047  37.877 233.683  1.00 20.00    -0.289 N 
HETATM   14  C25 VIA  7634      -1.799  37.978 233.748  1.00 20.00     0.092 A 
HETATM   15  C31 VIA  7634      -5.430  37.557 233.975  1.00 20.00     0.178 C 
HETATM   16  N29 VIA  7634      -3.639  38.679 232.676  1.00 20.00    -0.300 N 
HETATM   17  C30 VIA  7634      -2.291  38.784 232.658  1.00 20.00     0.055 A 
ATOM     18  H29 VIA  7634      -4.264  39.144 232.018  1.00  0.00     0.187 HD
HETATM   19  N26 VIA  7634      -0.500  37.766 234.153  1.00 20.00    -0.338 N 
ATOM     20  H26 VIA  7634       0.314  38.178 233.696  1.00  0.00     0.167 HD
BRANCH  17  21
HETATM   21  C32 VIA  7634      -1.517  39.569 231.704  1.00 20.00     0.061 C 
BRANCH  21  22
HETATM   22  C33 VIA  7634      -1.470  38.841 230.303  1.00 20.00     0.002 C 
HETATM   23  C34 VIA  7634      -0.660  37.566 230.247  1.00 20.00     0.005 C 
ENDBRANCH  21  22
ENDBRANCH  17  21
ENDBRANCH   1   7
BRANCH   6  24
HETATM   24  O3  VIA  7634       1.536  38.750 236.152  1.00 20.00    -0.351 OA
BRANCH  24  25
HETATM   25  C2  VIA  7634       1.690  39.629 237.323  1.00 20.00     0.171 C 
HETATM   26  C1  VIA  7634       0.431  39.517 238.100  1.00 20.00     0.034 C 
ENDBRANCH  24  25
ENDBRANCH   6  24
BRANCH   3  27
HETATM   27  S10 VIA  7634       2.547  32.982 236.437  1.00 20.00     0.261 S 
HETATM   28  O11 VIA  7634       3.748  32.614 235.901  1.00 20.00    -0.200 OA
HETATM   29  O12 VIA  7634       2.310  32.561 237.748  1.00 20.00    -0.200 OA
BRANCH  27  30
HETATM   30  N14 VIA  7634       1.417  32.333 235.476  1.00 20.00    -0.303 N 
HETATM   31  C15 VIA  7634       0.217  31.731 235.990  1.00 20.00     0.165 C 
HETATM   32  C16 VIA  7634      -1.028  32.151 235.182  1.00 20.00     0.292 C 
HETATM   33  N17 VIA  7634      -0.862  31.778 233.787  1.00 20.00     0.087 N 
HETATM   34  C18 VIA  7634       0.383  32.259 233.193  1.00 20.00     0.292 C 
HETATM   35  C20 VIA  7634      -2.045  32.009 232.988  1.00 20.00     0.310 C 
HETATM   36  C19 VIA  7634       1.623  32.002 234.087  1.00 20.00     0.165 C 
ENDBRANCH  27  30
ENDBRANCH   3  27
TORSDOF 7
ENDMDL
MODEL 6
REMARK VINA RESULT:      -6.7      2.691      8.887
REMARK  7 active torsions:
REMARK  status: ('A' for Active; 'I' for Inactive)
REMARK    1  A    between atoms: C32_3  and  C33_2 
REMARK    2  A    between atoms: C30_4  and  C32_3 
REMARK    3  A    between atoms: C21_14  and  C9_18 
REMARK    4  A    between atoms: C7_20  and  S10_27 
REMARK    5  A    between atoms: C4_23  and  O3_24 
REMARK    6  A    between atoms: C2_25  and  O3_24 
REMARK    7  A    between atoms: N14_30  and  S10_27 
ROOT
HETATM    1  C9  VIA  7634      -1.648  37.628 233.753  1.00 20.00     0.043 A 
HETATM    2  C8  VIA  7634      -1.236  38.308 232.593  1.00 20.00     0.043 A 
HETATM    3  C7  VIA  7634      -2.154  38.941 231.737  1.00 20.00     0.080 A 
HETATM    4  C6  VIA  7634      -3.487  38.858 232.089  1.00 20.00     0.028 A 
HETATM    5  C5  VIA  7634      -3.891  38.199 233.199  1.00 20.00     0.039 A 
HETATM    6  C4  VIA  7634      -2.964  37.563 234.063  1.00 20.00     0.082 A 
ENDROOT
BRANCH   1   7
HETATM    7  C21 VIA  7634      -0.523  37.035 234.502  1.00 20.00     0.121 A 
HETATM    8  N22 VIA  7634      -0.404  35.666 234.282  1.00 20.00    -0.307 N 
HETATM    9  C23 VIA  7634       0.598  34.891 234.874  1.00 20.00     0.277 A 
ATOM     10  H22 VIA  7634      -1.074  35.209 233.663  1.00  0.00     0.170 HD
HETATM   11  O27 VIA  7634       0.657  33.686 234.645  1.00 20.00    -0.265 OA
HETATM   12  C24 VIA  7634       1.440  35.669 235.712  1.00 20.00     0.147 A 
HETATM   13  N28 VIA  7634       2.535  35.316 236.477  1.00 20.00    -0.289 N 
HETATM   14  C25 VIA  7634       1.238  37.055 235.880  1.00 20.00     0.092 A 
HETATM   15  C31 VIA  7634       3.101  33.987 236.608  1.00 20.00     0.178 C 
HETATM   16  N29 VIA  7634       3.008  36.417 237.098  1.00 20.00    -0.300 N 
HETATM   17  C30 VIA  7634       2.270  37.505 236.781  1.00 20.00     0.055 A 
ATOM     18  H29 VIA  7634       3.814  36.428 237.723  1.00  0.00     0.187 HD
HETATM   19  N26 VIA  7634       0.242  37.784 235.268  1.00 20.00    -0.338 N 
ATOM     20  H26 VIA  7634       0.111  38.788 235.395  1.00  0.00     0.167 HD
BRANCH  17  21
HETATM   21  C32 VIA  7634       2.501  38.857 237.275  1.00 20.00     0.061 C 
BRANCH  21  22
HETATM   22  C33 VIA  7634       1.672  39.109 238.595  1.00 20.00     0.002 C 
HETATM   23  C34 VIA  7634       0.279  39.665 238.405  1.00 20.00     0.005 C 
ENDBRANCH  21  22
ENDBRANCH  17  21
ENDBRANCH   1   7
BRANCH   6  24
HETATM   24  O3  VIA  7634      -3.261  36.904 235.162  1.00 20.00    -0.351 OA
BRANCH  24  25
HETATM   25  C2  VIA  7634      -4.024  35.648 235.086  1.00 20.00     0.171 C 
HETATM   26  C1  VIA  7634      -3.701  34.885 236.317  1.00 20.00     0.034 C 
ENDBRANCH  24  25
ENDBRANCH   6  24
BRANCH   3  27
HETATM   27  S10 VIA  7634      -1.635  39.780 230.318  1.00 20.00     0.261 S 
HETATM   28  O11 VIA  7634      -1.517  41.126 230.520  1.00 20.00    -0.200 OA
HETATM   29  O12 VIA  7634      -0.498  39.135 229.826  1.00 20.00    -0.200 OA
BRANCH  27  30
HETATM   30  N14 VIA  7634      -2.834  39.598 229.244  1.00 20.00    -0.303 N 
HETATM   31  C15 VIA  7634      -3.161  38.327 228.658  1.00 20.00     0.165 C 
HETATM   32  C16 VIA  7634      -4.685  38.088 228.620  1.00 20.00     0.292 C 
HETATM   33  N17 VIA  7634      -5.334  39.146 227.866  1.00 20.00     0.087 N 
HETATM   34  C18 VIA  7634      -4.987  40.491 228.320  1.00 20.00     0.292 C 
HETATM   35  C20 VIA  7634      -6.747  38.920 227.661  1.00 20.00     0.310 C 
HETATM   36  C19 VIA  7634      -3.465  40.686 228.537  1.00 20.00     0.165 C 
ENDBRANCH  27  30
ENDBRANCH   3  27
TORSDOF 7
ENDMDL
MODEL 7
REMARK VINA RESULT:      -6.6      3.067      9.167
REMARK  7 active torsions:
REMARK  status: ('A' for Active; 'I' for Inactive)
REMARK    1  A    between atoms: C32_3  and  C33_2 
REMARK    2  A    between atoms: C30_4  and  C32_3 
REMARK    3  A    between atoms: C21_14  and  C9_18 
REMARK    4  A    between atoms: C7_20  and  S10_27 
REMARK    5  A    between atoms: C4_23  and  O3_24 
REMARK    6  A    between atoms: C2_25  and  O3_24 
REMARK    7  A    between atoms: N14_30  and  S10_27 
ROOT
HETATM    1  C9  VIA  7634      -2.193  40.415 229.416  1.00 20.00     0.043 A 
HETATM    2  C8  VIA  7634      -3.268  39.894 228.675  1.00 20.00     0.043 A 
HETATM    3  C7  VIA  7634      -3.949  40.660 227.713  1.00 20.00     0.080 A 
HETATM    4  C6  VIA  7634      -3.511  41.958 227.532  1.00 20.00     0.028 A 
HETATM    5  C5  VIA  7634      -2.481  42.468 228.246  1.00 20.00     0.039 A 
HETATM    6  C4  VIA  7634      -1.795  41.693 229.215  1.00 20.00     0.082 A 
ENDROOT
BRANCH   1   7
HETATM    7  C21 VIA  7634      -1.628  39.443 230.371  1.00 20.00     0.121 A 
HETATM    8  N22 VIA  7634      -2.044  39.682 231.678  1.00 20.00    -0.307 N 
HETATM    9  C23 VIA  7634      -1.648  38.882 232.753  1.00 20.00     0.277 A 
ATOM     10  H22 VIA  7634      -2.662  40.473 231.857  1.00  0.00     0.170 HD
HETATM   11  O27 VIA  7634      -2.046  39.138 233.887  1.00 20.00    -0.265 OA
HETATM   12  C24 VIA  7634      -0.784  37.834 232.341  1.00 20.00     0.147 A 
HETATM   13  N28 VIA  7634      -0.168  36.829 233.063  1.00 20.00    -0.289 N 
HETATM   14  C25 VIA  7634      -0.410  37.673 230.990  1.00 20.00     0.092 A 
HETATM   15  C31 VIA  7634      -0.268  36.610 234.492  1.00 20.00     0.178 C 
HETATM   16  N29 VIA  7634       0.559  36.066 232.218  1.00 20.00    -0.300 N 
HETATM   17  C30 VIA  7634       0.457  36.521 230.948  1.00 20.00     0.055 A 
ATOM     18  H29 VIA  7634       1.111  35.256 232.499  1.00  0.00     0.187 HD
HETATM   19  N26 VIA  7634      -0.831  38.481 229.957  1.00 20.00    -0.338 N 
ATOM     20  H26 VIA  7634      -0.557  38.348 228.983  1.00  0.00     0.167 HD
BRANCH  17  21
HETATM   21  C32 VIA  7634       1.112  35.935 229.786  1.00 20.00     0.061 C 
BRANCH  21  22
HETATM   22  C33 VIA  7634       0.086  35.067 228.956  1.00 20.00     0.002 C 
HETATM   23  C34 VIA  7634      -0.383  35.665 227.650  1.00 20.00     0.005 C 
ENDBRANCH  21  22
ENDBRANCH  17  21
ENDBRANCH   1   7
BRANCH   6  24
HETATM   24  O3  VIA  7634      -0.785  42.100 229.953  1.00 20.00    -0.351 OA
BRANCH  24  25
HETATM   25  C2  VIA  7634       0.304  42.885 229.348  1.00 20.00     0.171 C 
HETATM   26  C1  VIA  7634       1.055  41.953 228.472  1.00 20.00     0.034 C 
ENDBRANCH  24  25
ENDBRANCH   6  24
BRANCH   3  27
HETATM   27  S10 VIA  7634      -5.266  40.007 226.803  1.00 20.00     0.261 S 
HETATM   28  O11 VIA  7634      -5.176  38.653 226.653  1.00 20.00    -0.200 OA
HETATM   29  O12 VIA  7634      -6.454  40.481 227.364  1.00 20.00    -0.200 OA
BRANCH  27  30
HETATM   30  N14 VIA  7634      -5.115  40.629 225.316  1.00 20.00    -0.303 N 
HETATM   31  C15 VIA  7634      -6.034  41.598 224.786  1.00 20.00     0.165 C 
HETATM   32  C16 VIA  7634      -5.303  42.742 224.053  1.00 20.00     0.292 C 
HETATM   33  N17 VIA  7634      -4.496  42.202 222.972  1.00 20.00     0.087 N 
HETATM   34  C18 VIA  7634      -3.593  41.132 223.388  1.00 20.00     0.292 C 
HETATM   35  C20 VIA  7634      -3.890  43.221 222.144  1.00 20.00     0.310 C 
HETATM   36  C19 VIA  7634      -4.280  40.068 224.281  1.00 20.00     0.165 C 
ENDBRANCH  27  30
ENDBRANCH   3  27
TORSDOF 7
ENDMDL
MODEL 8
REMARK VINA RESULT:      -6.4      2.884      9.218
REMARK  7 active torsions:
REMARK  status: ('A' for Active; 'I' for Inactive)
REMARK    1  A    between atoms: C32_3  and  C33_2 
REMARK    2  A    between atoms: C30_4  and  C32_3 
REMARK    3  A    between atoms: C21_14  and  C9_18 
REMARK    4  A    between atoms: C7_20  and  S10_27 
REMARK    5  A    between atoms: C4_23  and  O3_24 
REMARK    6  A    between atoms: C2_25  and  O3_24 
REMARK    7  A    between atoms: N14_30  and  S10_27 
ROOT
HETATM    1  C9  VIA  7634      -1.662  37.910 233.865  1.00 20.00     0.043 A 
HETATM    2  C8  VIA  7634      -1.297  38.578 232.682  1.00 20.00     0.043 A 
HETATM    3  C7  VIA  7634      -2.255  39.013 231.748  1.00 20.00     0.080 A 
HETATM    4  C6  VIA  7634      -3.577  38.747 232.049  1.00 20.00     0.028 A 
HETATM    5  C5  VIA  7634      -3.934  38.098 233.181  1.00 20.00     0.039 A 
HETATM    6  C4  VIA  7634      -2.968  37.662 234.122  1.00 20.00     0.082 A 
ENDROOT
BRANCH   1   7
HETATM    7  C21 VIA  7634      -0.501  37.540 234.697  1.00 20.00     0.121 A 
HETATM    8  N22 VIA  7634       0.123  38.651 235.258  1.00 20.00    -0.307 N 
HETATM    9  C23 VIA  7634       1.236  38.546 236.096  1.00 20.00     0.277 A 
ATOM     10  H22 VIA  7634      -0.248  39.577 235.050  1.00  0.00     0.170 HD
HETATM   11  O27 VIA  7634       1.748  39.560 236.566  1.00 20.00    -0.265 OA
HETATM   12  C24 VIA  7634       1.634  37.196 236.279  1.00 20.00     0.147 A 
HETATM   13  N28 VIA  7634       2.667  36.646 237.016  1.00 20.00    -0.289 N 
HETATM   14  C25 VIA  7634       0.943  36.132 235.662  1.00 20.00     0.092 A 
HETATM   15  C31 VIA  7634       3.638  37.371 237.811  1.00 20.00     0.178 C 
HETATM   16  N29 VIA  7634       2.635  35.303 236.878  1.00 20.00    -0.300 N 
HETATM   17  C30 VIA  7634       1.616  34.924 236.072  1.00 20.00     0.055 A 
ATOM     18  H29 VIA  7634       3.290  34.660 237.322  1.00  0.00     0.187 HD
HETATM   19  N26 VIA  7634      -0.159  36.278 234.849  1.00 20.00    -0.338 N 
ATOM     20  H26 VIA  7634      -0.653  35.498 234.415  1.00  0.00     0.167 HD
BRANCH  17  21
HETATM   21  C32 VIA  7634       1.292  33.550 235.710  1.00 20.00     0.061 C 
BRANCH  21  22
HETATM   22  C33 VIA  7634       2.523  32.603 235.991  1.00 20.00     0.002 C 
HETATM   23  C34 VIA  7634       2.864  31.618 234.897  1.00 20.00     0.005 C 
ENDBRANCH  21  22
ENDBRANCH  17  21
ENDBRANCH   1   7
BRANCH   6  24
HETATM   24  O3  VIA  7634      -3.218  37.029 235.248  1.00 20.00    -0.351 OA
BRANCH  24  25
HETATM   25  C2  VIA  7634      -4.205  35.938 235.277  1.00 20.00     0.171 C 
HETATM   26  C1  VIA  7634      -3.441  34.677 235.113  1.00 20.00     0.034 C 
ENDBRANCH  24  25
ENDBRANCH   6  24
BRANCH   3  27
HETATM   27  S10 VIA  7634      -1.796  39.839 230.302  1.00 20.00     0.261 S 
HETATM   28  O11 VIA  7634      -1.536  41.163 230.515  1.00 20.00    -0.200 OA
HETATM   29  O12 VIA  7634      -0.773  39.107 229.693  1.00 20.00    -0.200 OA
BRANCH  27  30
HETATM   30  N14 VIA  7634      -3.101  39.793 229.344  1.00 20.00    -0.303 N 
HETATM   31  C15 VIA  7634      -4.022  40.891 229.239  1.00 20.00     0.165 C 
HETATM   32  C16 VIA  7634      -4.422  41.167 227.775  1.00 20.00     0.292 C 
HETATM   33  N17 VIA  7634      -5.021  39.979 227.192  1.00 20.00     0.087 N 
HETATM   34  C18 VIA  7634      -4.204  38.777 227.335  1.00 20.00     0.292 C 
HETATM   35  C20 VIA  7634      -5.554  40.197 225.866  1.00 20.00     0.310 C 
HETATM   36  C19 VIA  7634      -3.645  38.587 228.768  1.00 20.00     0.165 C 
ENDBRANCH  27  30
ENDBRANCH   3  27
TORSDOF 7
ENDMDL
MODEL 9
REMARK VINA RESULT:      -6.4      4.086      6.952
REMARK  7 active torsions:
REMARK  status: ('A' for Active; 'I' for Inactive)
REMARK    1  A    between atoms: C32_3  and  C33_2 
REMARK    2  A    between atoms: C30_4  and  C32_3 
REMARK    3  A    between atoms: C21_14  and  C9_18 
REMARK    4  A    between atoms: C7_20  and  S10_27 
REMARK    5  A    between atoms: C4_23  and  O3_24 
REMARK    6  A    between atoms: C2_25  and  O3_24 
REMARK    7  A    between atoms: N14_30  and  S10_27 
ROOT
HETATM    1  C9  VIA  7634       0.714  35.727 235.904  1.00 20.00     0.043 A 
HETATM    2  C8  VIA  7634       0.911  34.373 235.579  1.00 20.00     0.043 A 
HETATM    3  C7  VIA  7634       2.084  33.686 235.937  1.00 20.00     0.080 A 
HETATM    4  C6  VIA  7634       3.041  34.410 236.622  1.00 20.00     0.028 A 
HETATM    5  C5  VIA  7634       2.861  35.714 236.932  1.00 20.00     0.039 A 
HETATM    6  C4  VIA  7634       1.677  36.406 236.572  1.00 20.00     0.082 A 
ENDROOT
BRANCH   1   7
HETATM    7  C21 VIA  7634      -0.582  36.250 235.430  1.00 20.00     0.121 A 
HETATM    8  N22 VIA  7634      -1.658  35.707 236.126  1.00 20.00    -0.307 N 
HETATM    9  C23 VIA  7634      -2.983  36.063 235.862  1.00 20.00     0.277 A 
ATOM     10  H22 VIA  7634      -1.471  35.023 236.859  1.00  0.00     0.170 HD
HETATM   11  O27 VIA  7634      -3.896  35.553 236.508  1.00 20.00    -0.265 OA
HETATM   12  C24 VIA  7634      -3.075  37.014 234.812  1.00 20.00     0.147 A 
HETATM   13  N28 VIA  7634      -4.172  37.628 234.237  1.00 20.00    -0.289 N 
HETATM   14  C25 VIA  7634      -1.926  37.504 234.157  1.00 20.00     0.092 A 
HETATM   15  C31 VIA  7634      -5.561  37.421 234.597  1.00 20.00     0.178 C 
HETATM   16  N29 VIA  7634      -3.746  38.467 233.269  1.00 20.00    -0.300 N 
HETATM   17  C30 VIA  7634      -2.397  38.441 233.167  1.00 20.00     0.055 A 
ATOM     18  H29 VIA  7634      -4.358  39.043 232.691  1.00  0.00     0.187 HD
HETATM   19  N26 VIA  7634      -0.633  37.134 234.455  1.00 20.00    -0.338 N 
ATOM     20  H26 VIA  7634       0.189  37.501 233.977  1.00  0.00     0.167 HD
BRANCH  17  21
HETATM   21  C32 VIA  7634      -1.606  39.223 232.225  1.00 20.00     0.061 C 
BRANCH  21  22
HETATM   22  C33 VIA  7634      -1.441  38.440 230.863  1.00 20.00     0.002 C 
HETATM   23  C34 VIA  7634      -0.265  37.496 230.781  1.00 20.00     0.005 C 
ENDBRANCH  21  22
ENDBRANCH  17  21
ENDBRANCH   1   7
BRANCH   6  24
HETATM   24  O3  VIA  7634       1.412  37.668 236.830  1.00 20.00    -0.351 OA
BRANCH  24  25
HETATM   25  C2  VIA  7634       1.327  38.134 238.223  1.00 20.00     0.171 C 
HETATM   26  C1  VIA  7634       0.660  39.459 238.182  1.00 20.00     0.034 C 
ENDBRANCH  24  25
ENDBRANCH   6  24
BRANCH   3  27
HETATM   27  S10 VIA  7634       2.312  32.020 235.538  1.00 20.00     0.261 S 
HETATM   28  O11 VIA  7634       1.167  31.428 235.089  1.00 20.00    -0.200 OA
HETATM   29  O12 VIA  7634       3.420  31.926 234.692  1.00 20.00    -0.200 OA
BRANCH  27  30
HETATM   30  N14 VIA  7634       2.670  31.285 236.936  1.00 20.00    -0.303 N 
HETATM   31  C15 VIA  7634       3.955  30.693 237.192  1.00 20.00     0.165 C 
HETATM   32  C16 VIA  7634       4.472  31.033 238.606  1.00 20.00     0.292 C 
HETATM   33  N17 VIA  7634       3.523  30.573 239.605  1.00 20.00     0.087 N 
HETATM   34  C18 VIA  7634       2.157  31.040 239.378  1.00 20.00     0.292 C 
HETATM   35  C20 VIA  7634       3.999  30.726 240.961  1.00 20.00     0.310 C 
HETATM   36  C19 VIA  7634       1.691  30.869 237.910  1.00 20.00     0.165 C 
ENDBRANCH  27  30
ENDBRANCH   3  27
TORSDOF 7
ENDMDL
