MODEL 1
REMARK VINA RESULT:      -8.5      0.000      0.000
REMARK  7 active torsions:
REMARK  status: ('A' for Active; 'I' for Inactive)
REMARK    1  A    between atoms: C3_3  and  O3_4 
REMARK    2  A    between atoms: C1X_31  and  O3_4 
REMARK    3  A    between atoms: C12_13  and  O12_14 
REMARK    4  A    between atoms: C14_17  and  O14_18 
REMARK    5  A    between atoms: C17_22  and  C20_25 
REMARK    6  A    between atoms: C3X_33  and  O3X_34 
REMARK    7  A    between atoms: C4X_36  and  O4X_37 
ROOT
HETATM    1  C1  DGX  2997      -1.999  34.269 232.914  1.00 20.00     0.012 C 
HETATM    2  C2  DGX  2997      -3.109  35.246 232.526  1.00 20.00     0.033 C 
HETATM    3  C3  DGX  2997      -2.879  35.878 231.153  1.00 20.00     0.125 C 
HETATM    4  C4  DGX  2997      -1.527  36.580 231.163  1.00 20.00     0.037 C 
HETATM    5  C5  DGX  2997      -0.361  35.678 231.559  1.00 20.00    -0.004 C 
HETATM    6  C6  DGX  2997       0.961  36.441 231.551  1.00 20.00     0.006 C 
HETATM    7  C7  DGX  2997       1.056  37.401 232.735  1.00 20.00     0.008 C 
HETATM    8  C8  DGX  2997       1.002  36.633 234.052  1.00 20.00     0.026 C 
HETATM    9  C9  DGX  2997      -0.240  35.743 234.143  1.00 20.00     0.003 C 
HETATM   10  C10 DGX  2997      -0.585  34.867 232.872  1.00 20.00    -0.036 C 
HETATM   11  C11 DGX  2997      -0.022  34.850 235.359  1.00 20.00     0.038 C 
HETATM   12  C12 DGX  2997       0.263  35.602 236.651  1.00 20.00     0.130 C 
HETATM   13  C13 DGX  2997       1.464  36.618 236.601  1.00 20.00     0.021 C 
HETATM   14  C14 DGX  2997       1.308  37.521 235.327  1.00 20.00     0.072 C 
HETATM   15  C15 DGX  2997       0.246  38.531 235.817  1.00 20.00     0.040 C 
HETATM   16  C16 DGX  2997       0.588  38.857 237.270  1.00 20.00     0.013 C 
HETATM   17  C17 DGX  2997       1.247  37.597 237.825  1.00 20.00     0.030 C 
HETATM   18  C18 DGX  2997       2.820  35.885 236.592  1.00 20.00     0.022 C 
HETATM   19  C19 DGX  2997       0.267  33.587 232.785  1.00 20.00     0.016 C 
ENDROOT
BRANCH   3  20
HETATM   20  O3  DGX  2997      -2.860  34.906 230.098  1.00 20.00    -0.356 OA
BRANCH  20  21
HETATM   21  C1X DGX  2997      -1.810  34.938 229.114  1.00 20.00     0.263 C 
HETATM   22  O5X DGX  2997      -2.325  35.301 227.832  1.00 20.00    -0.354 OA
HETATM   23  C5X DGX  2997      -1.376  35.332 226.754  1.00 20.00     0.152 C 
HETATM   24  C4X DGX  2997      -0.701  33.959 226.607  1.00 20.00     0.175 C 
HETATM   25  C6X DGX  2997      -2.139  35.712 225.493  1.00 20.00     0.042 C 
HETATM   26  C3X DGX  2997      -0.096  33.486 227.932  1.00 20.00     0.154 C 
HETATM   27  C2X DGX  2997      -1.163  33.553 229.026  1.00 20.00     0.095 C 
BRANCH  24  28
HETATM   28  O4X DGX  2997       0.339  34.016 225.619  1.00 20.00    -0.390 OA
ATOM     29  H4X DGX  2997      -0.059  34.086 224.761  1.00  0.00     0.210 HD
ENDBRANCH  24  28
BRANCH  26  30
HETATM   30  O3X DGX  2997       1.082  34.250 228.259  1.00 20.00    -0.393 OA
ATOM     31  H3X DGX  2997       1.074  35.117 227.871  1.00  0.00     0.210 HD
ENDBRANCH  26  30
ENDBRANCH  20  21
ENDBRANCH   3  20
BRANCH  12  32
HETATM   32  O12 DGX  2997       0.473  34.625 237.680  1.00 20.00    -0.395 OA
ATOM     33  H12 DGX  2997       0.089  34.965 238.479  1.00  0.00     0.210 HD
ENDBRANCH  12  32
BRANCH  14  34
HETATM   34  O14 DGX  2997       2.520  38.340 235.136  1.00 20.00    -0.389 OA
ATOM     35  H14 DGX  2997       2.422  38.892 234.368  1.00  0.00     0.210 HD
ENDBRANCH  14  34
BRANCH  17  36
HETATM   36  C20 DGX  2997       2.434  37.921 238.685  1.00 20.00    -0.045 A 
HETATM   37  C21 DGX  2997       3.230  39.164 238.538  1.00 20.00     0.213 A 
HETATM   38  O21 DGX  2997       4.333  38.994 239.461  1.00 20.00    -0.314 OA
HETATM   39  C23 DGX  2997       4.170  37.862 240.152  1.00 20.00     0.283 A 
HETATM   40  C22 DGX  2997       3.004  37.173 239.645  1.00 20.00     0.087 A 
HETATM   41  O23 DGX  2997       4.993  37.535 241.012  1.00 20.00    -0.260 OA
ENDBRANCH  17  36
TORSDOF 7
ENDMDL
MODEL 2
REMARK VINA RESULT:      -8.0      2.497      3.370
REMARK  7 active torsions:
REMARK  status: ('A' for Active; 'I' for Inactive)
REMARK    1  A    between atoms: C3_3  and  O3_4 
REMARK    2  A    between atoms: C1X_31  and  O3_4 
REMARK    3  A    between atoms: C12_13  and  O12_14 
REMARK    4  A    between atoms: C14_17  and  O14_18 
REMARK    5  A    between atoms: C17_22  and  C20_25 
REMARK    6  A    between atoms: C3X_33  and  O3X_34 
REMARK    7  A    between atoms: C4X_36  and  O4X_37 
ROOT
HETATM    1  C1  DGX  2997      -2.590  35.817 233.113  1.00 20.00     0.012 C 
HETATM    2  C2  DGX  2997      -3.252  37.161 232.805  1.00 20.00     0.033 C 
HETATM    3  C3  DGX  2997      -2.737  37.783 231.507  1.00 20.00     0.125 C 
HETATM    4  C4  DGX  2997      -1.226  37.944 231.613  1.00 20.00     0.037 C 
HETATM    5  C5  DGX  2997      -0.485  36.648 231.937  1.00 20.00    -0.004 C 
HETATM    6  C6  DGX  2997       1.022  36.879 232.030  1.00 20.00     0.006 C 
HETATM    7  C7  DGX  2997       1.391  37.631 233.306  1.00 20.00     0.008 C 
HETATM    8  C8  DGX  2997       0.995  36.823 234.538  1.00 20.00     0.026 C 
HETATM    9  C9  DGX  2997      -0.487  36.440 234.516  1.00 20.00     0.003 C 
HETATM   10  C10 DGX  2997      -1.054  35.863 233.157  1.00 20.00    -0.036 C 
HETATM   11  C11 DGX  2997      -0.670  35.426 235.640  1.00 20.00     0.038 C 
HETATM   12  C12 DGX  2997      -0.204  35.908 237.006  1.00 20.00     0.130 C 
HETATM   13  C13 DGX  2997       1.284  36.419 237.080  1.00 20.00     0.021 C 
HETATM   14  C14 DGX  2997       1.530  37.425 235.901  1.00 20.00     0.072 C 
HETATM   15  C15 DGX  2997       0.877  38.704 236.471  1.00 20.00     0.040 C 
HETATM   16  C16 DGX  2997       1.235  38.755 237.956  1.00 20.00     0.013 C 
HETATM   17  C17 DGX  2997       1.367  37.299 238.393  1.00 20.00     0.030 C 
HETATM   18  C18 DGX  2997       2.284  35.248 237.023  1.00 20.00     0.022 C 
HETATM   19  C19 DGX  2997      -0.716  34.373 232.957  1.00 20.00     0.016 C 
ENDROOT
BRANCH   3  20
HETATM   20  O3  DGX  2997      -3.012  36.967 230.360  1.00 20.00    -0.356 OA
BRANCH  20  21
HETATM   21  C1X DGX  2997      -3.607  37.555 229.188  1.00 20.00     0.263 C 
HETATM   22  O5X DGX  2997      -3.451  38.975 229.198  1.00 20.00    -0.354 OA
HETATM   23  C5X DGX  2997      -4.037  39.684 228.094  1.00 20.00     0.152 C 
HETATM   24  C4X DGX  2997      -5.543  39.387 228.019  1.00 20.00     0.175 C 
HETATM   25  C6X DGX  2997      -3.775  41.166 228.321  1.00 20.00     0.042 C 
HETATM   26  C3X DGX  2997      -5.817  37.881 227.984  1.00 20.00     0.154 C 
HETATM   27  C2X DGX  2997      -5.098  37.210 229.156  1.00 20.00     0.095 C 
BRANCH  24  28
HETATM   28  O4X DGX  2997      -6.113  39.986 226.845  1.00 20.00    -0.390 OA
ATOM     29  H4X DGX  2997      -6.205  39.318 226.177  1.00  0.00     0.210 HD
ENDBRANCH  24  28
BRANCH  26  30
HETATM   30  O3X DGX  2997      -5.442  37.321 226.710  1.00 20.00    -0.393 OA
ATOM     31  H3X DGX  2997      -5.197  36.405 226.772  1.00  0.00     0.210 HD
ENDBRANCH  26  30
ENDBRANCH  20  21
ENDBRANCH   3  20
BRANCH  12  32
HETATM   32  O12 DGX  2997      -0.414  34.835 237.935  1.00 20.00    -0.395 OA
ATOM     33  H12 DGX  2997      -0.928  34.171 237.491  1.00  0.00     0.210 HD
ENDBRANCH  12  32
BRANCH  14  34
HETATM   34  O14 DGX  2997       2.964  37.762 235.816  1.00 20.00    -0.389 OA
ATOM     35  H14 DGX  2997       3.087  38.523 235.260  1.00  0.00     0.210 HD
ENDBRANCH  14  34
BRANCH  17  36
HETATM   36  C20 DGX  2997       2.543  37.094 239.303  1.00 20.00    -0.045 A 
HETATM   37  C21 DGX  2997       2.649  35.960 240.252  1.00 20.00     0.213 A 
HETATM   38  O21 DGX  2997       3.858  36.233 241.002  1.00 20.00    -0.314 OA
HETATM   39  C23 DGX  2997       4.461  37.316 240.503  1.00 20.00     0.283 A 
HETATM   40  C22 DGX  2997       3.624  37.876 239.465  1.00 20.00     0.087 A 
HETATM   41  O23 DGX  2997       5.525  37.714 240.987  1.00 20.00    -0.260 OA
ENDBRANCH  17  36
TORSDOF 7
ENDMDL
MODEL 3
REMARK VINA RESULT:      -7.9      3.482     10.311
REMARK  7 active torsions:
REMARK  status: ('A' for Active; 'I' for Inactive)
REMARK    1  A    between atoms: C3_3  and  O3_4 
REMARK    2  A    between atoms: C1X_31  and  O3_4 
REMARK    3  A    between atoms: C12_13  and  O12_14 
REMARK    4  A    between atoms: C14_17  and  O14_18 
REMARK    5  A    between atoms: C17_22  and  C20_25 
REMARK    6  A    between atoms: C3X_33  and  O3X_34 
REMARK    7  A    between atoms: C4X_36  and  O4X_37 
ROOT
HETATM    1  C1  DGX  2997       0.321  36.006 232.314  1.00 20.00     0.012 C 
HETATM    2  C2  DGX  2997       1.389  37.019 232.729  1.00 20.00     0.033 C 
HETATM    3  C3  DGX  2997       1.211  37.500 234.169  1.00 20.00     0.125 C 
HETATM    4  C4  DGX  2997      -0.182  38.102 234.311  1.00 20.00     0.037 C 
HETATM    5  C5  DGX  2997      -1.310  37.159 233.899  1.00 20.00    -0.004 C 
HETATM    6  C6  DGX  2997      -2.676  37.822 234.064  1.00 20.00     0.006 C 
HETATM    7  C7  DGX  2997      -2.913  38.879 232.988  1.00 20.00     0.008 C 
HETATM    8  C8  DGX  2997      -2.898  38.245 231.601  1.00 20.00     0.026 C 
HETATM    9  C9  DGX  2997      -1.609  37.460 231.347  1.00 20.00     0.003 C 
HETATM   10  C10 DGX  2997      -1.123  36.495 232.502  1.00 20.00    -0.036 C 
HETATM   11  C11 DGX  2997      -1.850  36.672 230.064  1.00 20.00     0.038 C 
HETATM   12  C12 DGX  2997      -2.270  37.521 228.872  1.00 20.00     0.130 C 
HETATM   13  C13 DGX  2997      -3.530  38.439 229.096  1.00 20.00     0.021 C 
HETATM   14  C14 DGX  2997      -3.347  39.226 230.441  1.00 20.00     0.072 C 
HETATM   15  C15 DGX  2997      -2.389  40.351 229.990  1.00 20.00     0.040 C 
HETATM   16  C16 DGX  2997      -2.849  40.787 228.599  1.00 20.00     0.013 C 
HETATM   17  C17 DGX  2997      -3.460  39.542 227.963  1.00 20.00     0.030 C 
HETATM   18  C18 DGX  2997      -4.831  37.613 229.114  1.00 20.00     0.022 C 
HETATM   19  C19 DGX  2997      -1.881  35.154 232.513  1.00 20.00     0.016 C 
ENDROOT
BRANCH   3  20
HETATM   20  O3  DGX  2997       1.327  36.434 235.122  1.00 20.00    -0.356 OA
BRANCH  20  21
HETATM   21  C1X DGX  2997       1.721  36.724 236.476  1.00 20.00     0.263 C 
HETATM   22  O5X DGX  2997       1.041  37.881 236.966  1.00 20.00    -0.354 OA
HETATM   23  C5X DGX  2997       1.377  38.296 238.300  1.00 20.00     0.152 C 
HETATM   24  C4X DGX  2997       2.886  38.571 238.400  1.00 20.00     0.175 C 
HETATM   25  C6X DGX  2997       0.564  39.547 238.601  1.00 20.00     0.042 C 
HETATM   26  C3X DGX  2997       3.709  37.375 237.913  1.00 20.00     0.154 C 
HETATM   27  C2X DGX  2997       3.232  36.969 236.517  1.00 20.00     0.095 C 
BRANCH  24  28
HETATM   28  O4X DGX  2997       3.253  38.860 239.758  1.00 20.00    -0.390 OA
ATOM     29  H4X DGX  2997       2.564  38.549 240.332  1.00  0.00     0.210 HD
ENDBRANCH  24  28
BRANCH  26  30
HETATM   30  O3X DGX  2997       3.644  36.289 238.858  1.00 20.00    -0.393 OA
ATOM     31  H3X DGX  2997       2.778  35.904 238.914  1.00  0.00     0.210 HD
ENDBRANCH  26  30
ENDBRANCH  20  21
ENDBRANCH   3  20
BRANCH  12  32
HETATM   32  O12 DGX  2997      -2.485  36.632 227.766  1.00 20.00    -0.395 OA
ATOM     33  H12 DGX  2997      -3.171  37.008 227.229  1.00  0.00     0.210 HD
ENDBRANCH  12  32
BRANCH  14  34
HETATM   34  O14 DGX  2997      -4.594  39.934 230.786  1.00 20.00    -0.389 OA
ATOM     35  H14 DGX  2997      -4.446  40.516 231.523  1.00  0.00     0.210 HD
ENDBRANCH  14  34
BRANCH  17  36
HETATM   36  C20 DGX  2997      -4.721  39.860 227.214  1.00 20.00    -0.045 A 
HETATM   37  C21 DGX  2997      -5.079  39.230 225.920  1.00 20.00     0.213 A 
HETATM   38  O21 DGX  2997      -6.284  39.920 225.508  1.00 20.00    -0.314 OA
HETATM   39  C23 DGX  2997      -6.668  40.767 226.467  1.00 20.00     0.283 A 
HETATM   40  C22 DGX  2997      -5.674  40.757 227.518  1.00 20.00     0.087 A 
HETATM   41  O23 DGX  2997      -7.690  41.445 226.326  1.00 20.00    -0.260 OA
ENDBRANCH  17  36
TORSDOF 7
ENDMDL
MODEL 4
REMARK VINA RESULT:      -7.7      5.401      8.505
REMARK  7 active torsions:
REMARK  status: ('A' for Active; 'I' for Inactive)
REMARK    1  A    between atoms: C3_3  and  O3_4 
REMARK    2  A    between atoms: C1X_31  and  O3_4 
REMARK    3  A    between atoms: C12_13  and  O12_14 
REMARK    4  A    between atoms: C14_17  and  O14_18 
REMARK    5  A    between atoms: C17_22  and  C20_25 
REMARK    6  A    between atoms: C3X_33  and  O3X_34 
REMARK    7  A    between atoms: C4X_36  and  O4X_37 
ROOT
HETATM    1  C1  DGX  2997      -3.375  39.154 228.865  1.00 20.00     0.012 C 
HETATM    2  C2  DGX  2997      -3.479  40.602 229.345  1.00 20.00     0.033 C 
HETATM    3  C3  DGX  2997      -2.127  41.176 229.770  1.00 20.00     0.125 C 
HETATM    4  C4  DGX  2997      -1.547  40.290 230.865  1.00 20.00     0.037 C 
HETATM    5  C5  DGX  2997      -1.425  38.819 230.474  1.00 20.00    -0.004 C 
HETATM    6  C6  DGX  2997      -0.839  37.988 231.613  1.00 20.00     0.006 C 
HETATM    7  C7  DGX  2997      -1.851  37.800 232.741  1.00 20.00     0.008 C 
HETATM    8  C8  DGX  2997      -3.080  37.049 232.237  1.00 20.00     0.026 C 
HETATM    9  C9  DGX  2997      -3.709  37.734 231.022  1.00 20.00     0.003 C 
HETATM   10  C10 DGX  2997      -2.723  38.198 229.875  1.00 20.00    -0.036 C 
HETATM   11  C11 DGX  2997      -4.733  36.746 230.473  1.00 20.00     0.038 C 
HETATM   12  C12 DGX  2997      -5.766  36.279 231.488  1.00 20.00     0.130 C 
HETATM   13  C13 DGX  2997      -5.189  35.659 232.816  1.00 20.00     0.021 C 
HETATM   14  C14 DGX  2997      -4.086  36.621 233.383  1.00 20.00     0.072 C 
HETATM   15  C15 DGX  2997      -4.963  37.698 234.061  1.00 20.00     0.040 C 
HETATM   16  C16 DGX  2997      -6.125  36.963 234.727  1.00 20.00     0.013 C 
HETATM   17  C17 DGX  2997      -6.371  35.726 233.867  1.00 20.00     0.030 C 
HETATM   18  C18 DGX  2997      -4.617  34.248 232.575  1.00 20.00     0.022 C 
HETATM   19  C19 DGX  2997      -2.306  37.040 228.947  1.00 20.00     0.016 C 
ENDROOT
BRANCH   3  20
HETATM   20  O3  DGX  2997      -1.183  41.214 228.690  1.00 20.00    -0.356 OA
BRANCH  20  21
HETATM   21  C1X DGX  2997      -0.334  42.364 228.520  1.00 20.00     0.263 C 
HETATM   22  O5X DGX  2997       1.041  41.979 228.474  1.00 20.00    -0.354 OA
HETATM   23  C5X DGX  2997       1.994  43.046 228.343  1.00 20.00     0.152 C 
HETATM   24  C4X DGX  2997       1.833  44.039 229.505  1.00 20.00     0.175 C 
HETATM   25  C6X DGX  2997       3.379  42.415 228.340  1.00 20.00     0.042 C 
HETATM   26  C3X DGX  2997       0.388  44.530 229.628  1.00 20.00     0.154 C 
HETATM   27  C2X DGX  2997      -0.551  43.324 229.693  1.00 20.00     0.095 C 
BRANCH  24  28
HETATM   28  O4X DGX  2997       2.691  45.175 229.314  1.00 20.00    -0.390 OA
ATOM     29  H4X DGX  2997       2.277  45.937 229.702  1.00  0.00     0.210 HD
ENDBRANCH  24  28
BRANCH  26  30
HETATM   30  O3X DGX  2997       0.059  45.431 228.552  1.00 20.00    -0.393 OA
ATOM     31  H3X DGX  2997       0.789  45.986 228.303  1.00  0.00     0.210 HD
ENDBRANCH  26  30
ENDBRANCH  20  21
ENDBRANCH   3  20
BRANCH  12  32
HETATM   32  O12 DGX  2997      -6.625  35.341 230.826  1.00 20.00    -0.395 OA
ATOM     33  H12 DGX  2997      -6.645  35.573 229.906  1.00  0.00     0.210 HD
ENDBRANCH  12  32
BRANCH  14  34
HETATM   34  O14 DGX  2997      -3.381  35.974 234.506  1.00 20.00    -0.389 OA
ATOM     35  H14 DGX  2997      -3.409  35.029 234.408  1.00  0.00     0.210 HD
ENDBRANCH  14  34
BRANCH  17  36
HETATM   36  C20 DGX  2997      -6.635  34.508 234.703  1.00 20.00    -0.045 A 
HETATM   37  C21 DGX  2997      -7.619  33.463 234.330  1.00 20.00     0.213 A 
HETATM   38  O21 DGX  2997      -7.640  32.568 235.468  1.00 20.00    -0.314 OA
HETATM   39  C23 DGX  2997      -6.719  32.951 236.358  1.00 20.00     0.283 A 
HETATM   40  C22 DGX  2997      -6.115  34.182 235.898  1.00 20.00     0.087 A 
HETATM   41  O23 DGX  2997      -6.556  32.309 237.400  1.00 20.00    -0.260 OA
ENDBRANCH  17  36
TORSDOF 7
ENDMDL
MODEL 5
REMARK VINA RESULT:      -7.5      1.739      9.982
REMARK  7 active torsions:
REMARK  status: ('A' for Active; 'I' for Inactive)
REMARK    1  A    between atoms: C3_3  and  O3_4 
REMARK    2  A    between atoms: C1X_31  and  O3_4 
REMARK    3  A    between atoms: C12_13  and  O12_14 
REMARK    4  A    between atoms: C14_17  and  O14_18 
REMARK    5  A    between atoms: C17_22  and  C20_25 
REMARK    6  A    between atoms: C3X_33  and  O3X_34 
REMARK    7  A    between atoms: C4X_36  and  O4X_37 
ROOT
HETATM    1  C1  DGX  2997      -2.326  36.652 234.697  1.00 20.00     0.012 C 
HETATM    2  C2  DGX  2997      -1.831  35.438 235.483  1.00 20.00     0.033 C 
HETATM    3  C3  DGX  2997      -0.503  35.703 236.193  1.00 20.00     0.125 C 
HETATM    4  C4  DGX  2997       0.528  36.124 235.153  1.00 20.00     0.037 C 
HETATM    5  C5  DGX  2997       0.103  37.324 234.308  1.00 20.00    -0.004 C 
HETATM    6  C6  DGX  2997       1.177  37.692 233.288  1.00 20.00     0.006 C 
HETATM    7  C7  DGX  2997       1.237  36.674 232.152  1.00 20.00     0.008 C 
HETATM    8  C8  DGX  2997      -0.089  36.634 231.398  1.00 20.00     0.026 C 
HETATM    9  C9  DGX  2997      -1.269  36.368 232.335  1.00 20.00     0.003 C 
HETATM   10  C10 DGX  2997      -1.317  37.202 233.677  1.00 20.00    -0.036 C 
HETATM   11  C11 DGX  2997      -2.523  36.627 231.505  1.00 20.00     0.038 C 
HETATM   12  C12 DGX  2997      -2.600  35.827 230.213  1.00 20.00     0.130 C 
HETATM   13  C13 DGX  2997      -1.366  35.968 229.245  1.00 20.00     0.021 C 
HETATM   14  C14 DGX  2997      -0.050  35.766 230.074  1.00 20.00     0.072 C 
HETATM   15  C15 DGX  2997      -0.010  34.225 230.183  1.00 20.00     0.040 C 
HETATM   16  C16 DGX  2997      -0.466  33.678 228.831  1.00 20.00     0.013 C 
HETATM   17  C17 DGX  2997      -1.438  34.717 228.278  1.00 20.00     0.030 C 
HETATM   18  C18 DGX  2997      -1.364  37.335 228.534  1.00 20.00     0.022 C 
HETATM   19  C19 DGX  2997      -1.863  38.628 233.472  1.00 20.00     0.016 C 
ENDROOT
BRANCH   3  20
HETATM   20  O3  DGX  2997      -0.601  36.755 237.165  1.00 20.00    -0.356 OA
BRANCH  20  21
HETATM   21  C1X DGX  2997       0.317  36.793 238.273  1.00 20.00     0.263 C 
HETATM   22  O5X DGX  2997       1.352  37.750 238.042  1.00 20.00    -0.354 OA
HETATM   23  C5X DGX  2997       2.356  37.857 239.065  1.00 20.00     0.152 C 
HETATM   24  C4X DGX  2997       3.030  36.493 239.284  1.00 20.00     0.175 C 
HETATM   25  C6X DGX  2997       3.360  38.904 238.604  1.00 20.00     0.042 C 
HETATM   26  C3X DGX  2997       1.999  35.394 239.560  1.00 20.00     0.154 C 
HETATM   27  C2X DGX  2997       0.941  35.407 238.455  1.00 20.00     0.095 C 
BRANCH  24  28
HETATM   28  O4X DGX  2997       3.942  36.558 240.392  1.00 20.00    -0.390 OA
ATOM     29  H4X DGX  2997       3.668  37.259 240.970  1.00  0.00     0.210 HD
ENDBRANCH  24  28
BRANCH  26  30
HETATM   30  O3X DGX  2997       1.428  35.546 240.875  1.00 20.00    -0.393 OA
ATOM     31  H3X DGX  2997       0.556  35.921 240.854  1.00  0.00     0.210 HD
ENDBRANCH  26  30
ENDBRANCH  20  21
ENDBRANCH   3  20
BRANCH  12  32
HETATM   32  O12 DGX  2997      -3.811  36.207 229.544  1.00 20.00    -0.395 OA
ATOM     33  H12 DGX  2997      -4.522  36.110 230.166  1.00  0.00     0.210 HD
ENDBRANCH  12  32
BRANCH  14  34
HETATM   34  O14 DGX  2997       1.125  36.097 229.246  1.00 20.00    -0.389 OA
ATOM     35  H14 DGX  2997       1.180  35.503 228.506  1.00  0.00     0.210 HD
ENDBRANCH  14  34
BRANCH  17  36
HETATM   36  C20 DGX  2997      -1.228  34.952 226.810  1.00 20.00    -0.045 A 
HETATM   37  C21 DGX  2997      -2.338  35.204 225.860  1.00 20.00     0.213 A 
HETATM   38  O21 DGX  2997      -1.697  35.238 224.562  1.00 20.00    -0.314 OA
HETATM   39  C23 DGX  2997      -0.373  35.135 224.711  1.00 20.00     0.283 A 
HETATM   40  C22 DGX  2997      -0.080  34.921 226.111  1.00 20.00     0.087 A 
HETATM   41  O23 DGX  2997       0.369  35.162 223.724  1.00 20.00    -0.260 OA
ENDBRANCH  17  36
TORSDOF 7
ENDMDL
MODEL 6
REMARK VINA RESULT:      -7.5      2.305     10.624
REMARK  7 active torsions:
REMARK  status: ('A' for Active; 'I' for Inactive)
REMARK    1  A    between atoms: C3_3  and  O3_4 
REMARK    2  A    between atoms: C1X_31  and  O3_4 
REMARK    3  A    between atoms: C12_13  and  O12_14 
REMARK    4  A    between atoms: C14_17  and  O14_18 
REMARK    5  A    between atoms: C17_22  and  C20_25 
REMARK    6  A    between atoms: C3X_33  and  O3X_34 
REMARK    7  A    between atoms: C4X_36  and  O4X_37 
ROOT
HETATM    1  C1  DGX  2997      -1.077  34.742 232.712  1.00 20.00     0.012 C 
HETATM    2  C2  DGX  2997       0.294  34.761 233.389  1.00 20.00     0.033 C 
HETATM    3  C3  DGX  2997       0.917  36.158 233.409  1.00 20.00     0.125 C 
HETATM    4  C4  DGX  2997       1.021  36.663 231.976  1.00 20.00     0.037 C 
HETATM    5  C5  DGX  2997      -0.305  36.660 231.218  1.00 20.00    -0.004 C 
HETATM    6  C6  DGX  2997      -0.131  37.175 229.792  1.00 20.00     0.006 C 
HETATM    7  C7  DGX  2997       0.588  36.153 228.915  1.00 20.00     0.008 C 
HETATM    8  C8  DGX  2997      -0.223  34.864 228.820  1.00 20.00     0.026 C 
HETATM    9  C9  DGX  2997      -0.552  34.294 230.202  1.00 20.00     0.003 C 
HETATM   10  C10 DGX  2997      -1.087  35.314 231.285  1.00 20.00    -0.036 C 
HETATM   11  C11 DGX  2997      -1.575  33.189 229.961  1.00 20.00     0.038 C 
HETATM   12  C12 DGX  2997      -1.132  32.123 228.971  1.00 20.00     0.130 C 
HETATM   13  C13 DGX  2997      -0.675  32.648 227.558  1.00 20.00     0.021 C 
HETATM   14  C14 DGX  2997       0.339  33.828 227.762  1.00 20.00     0.072 C 
HETATM   15  C15 DGX  2997       1.632  33.046 228.084  1.00 20.00     0.040 C 
HETATM   16  C16 DGX  2997       1.648  31.827 227.163  1.00 20.00     0.013 C 
HETATM   17  C17 DGX  2997       0.182  31.477 226.925  1.00 20.00     0.030 C 
HETATM   18  C18 DGX  2997      -1.881  33.098 226.710  1.00 20.00     0.022 C 
HETATM   19  C19 DGX  2997      -2.585  35.631 231.113  1.00 20.00     0.016 C 
ENDROOT
BRANCH   3  20
HETATM   20  O3  DGX  2997       0.128  37.100 234.150  1.00 20.00    -0.356 OA
BRANCH  20  21
HETATM   21  C1X DGX  2997       0.744  37.896 235.179  1.00 20.00     0.263 C 
HETATM   22  O5X DGX  2997       1.931  37.268 235.666  1.00 20.00    -0.354 OA
HETATM   23  C5X DGX  2997       2.621  37.951 236.725  1.00 20.00     0.152 C 
HETATM   24  C4X DGX  2997       1.679  38.147 237.924  1.00 20.00     0.175 C 
HETATM   25  C6X DGX  2997       3.826  37.101 237.100  1.00 20.00     0.042 C 
HETATM   26  C3X DGX  2997       0.376  38.836 237.508  1.00 20.00     0.154 C 
HETATM   27  C2X DGX  2997      -0.245  38.074 236.334  1.00 20.00     0.095 C 
BRANCH  24  28
HETATM   28  O4X DGX  2997       2.316  38.942 238.936  1.00 20.00    -0.390 OA
ATOM     29  H4X DGX  2997       2.902  38.386 239.435  1.00  0.00     0.210 HD
ENDBRANCH  24  28
BRANCH  26  30
HETATM   30  O3X DGX  2997       0.604  40.227 237.207  1.00 20.00    -0.393 OA
ATOM     31  H3X DGX  2997       1.448  40.379 236.800  1.00  0.00     0.210 HD
ENDBRANCH  26  30
ENDBRANCH  20  21
ENDBRANCH   3  20
BRANCH  12  32
HETATM   32  O12 DGX  2997      -2.210  31.186 228.836  1.00 20.00    -0.395 OA
ATOM     33  H12 DGX  2997      -1.832  30.315 228.831  1.00  0.00     0.210 HD
ENDBRANCH  12  32
BRANCH  14  34
HETATM   34  O14 DGX  2997       0.625  34.478 226.470  1.00 20.00    -0.389 OA
ATOM     35  H14 DGX  2997       1.282  33.981 225.994  1.00  0.00     0.210 HD
ENDBRANCH  14  34
BRANCH  17  36
HETATM   36  C20 DGX  2997      -0.080  31.112 225.492  1.00 20.00    -0.045 A 
HETATM   37  C21 DGX  2997      -0.984  30.009 225.086  1.00 20.00     0.213 A 
HETATM   38  O21 DGX  2997      -0.830  29.932 223.648  1.00 20.00    -0.314 OA
HETATM   39  C23 DGX  2997      -0.034  30.920 223.227  1.00 20.00     0.283 A 
HETATM   40  C22 DGX  2997       0.463  31.636 224.381  1.00 20.00     0.087 A 
HETATM   41  O23 DGX  2997       0.214  31.049 222.025  1.00 20.00    -0.260 OA
ENDBRANCH  17  36
TORSDOF 7
ENDMDL
MODEL 7
REMARK VINA RESULT:      -7.3      2.402      3.969
REMARK  7 active torsions:
REMARK  status: ('A' for Active; 'I' for Inactive)
REMARK    1  A    between atoms: C3_3  and  O3_4 
REMARK    2  A    between atoms: C1X_31  and  O3_4 
REMARK    3  A    between atoms: C12_13  and  O12_14 
REMARK    4  A    between atoms: C14_17  and  O14_18 
REMARK    5  A    between atoms: C17_22  and  C20_25 
REMARK    6  A    between atoms: C3X_33  and  O3X_34 
REMARK    7  A    between atoms: C4X_36  and  O4X_37 
ROOT
HETATM    1  C1  DGX  2997      -1.565  37.537 231.659  1.00 20.00     0.012 C 
HETATM    2  C2  DGX  2997      -1.655  36.205 230.913  1.00 20.00     0.033 C 
HETATM    3  C3  DGX  2997      -3.027  35.546 231.057  1.00 20.00     0.125 C 
HETATM    4  C4  DGX  2997      -3.318  35.350 232.539  1.00 20.00     0.037 C 
HETATM    5  C5  DGX  2997      -3.232  36.633 233.363  1.00 20.00    -0.004 C 
HETATM    6  C6  DGX  2997      -3.534  36.368 234.836  1.00 20.00     0.006 C 
HETATM    7  C7  DGX  2997      -2.381  35.631 235.515  1.00 20.00     0.008 C 
HETATM    8  C8  DGX  2997      -1.109  36.472 235.472  1.00 20.00     0.026 C 
HETATM    9  C9  DGX  2997      -0.750  36.890 234.045  1.00 20.00     0.003 C 
HETATM   10  C10 DGX  2997      -1.925  37.455 233.150  1.00 20.00    -0.036 C 
HETATM   11  C11 DGX  2997       0.357  37.929 234.183  1.00 20.00     0.038 C 
HETATM   12  C12 DGX  2997       1.564  37.462 234.984  1.00 20.00     0.130 C 
HETATM   13  C13 DGX  2997       1.257  36.915 236.429  1.00 20.00     0.021 C 
HETATM   14  C14 DGX  2997       0.080  35.882 236.337  1.00 20.00     0.072 C 
HETATM   15  C15 DGX  2997       0.833  34.630 235.834  1.00 20.00     0.040 C 
HETATM   16  C16 DGX  2997       2.172  34.598 236.569  1.00 20.00     0.013 C 
HETATM   17  C17 DGX  2997       2.523  36.058 236.838  1.00 20.00     0.030 C 
HETATM   18  C18 DGX  2997       0.910  38.060 237.400  1.00 20.00     0.022 C 
HETATM   19  C19 DGX  2997      -2.243  38.932 233.451  1.00 20.00     0.016 C 
ENDROOT
BRANCH   3  20
HETATM   20  O3  DGX  2997      -4.081  36.347 230.504  1.00 20.00    -0.356 OA
BRANCH  20  21
HETATM   21  C1X DGX  2997      -3.867  37.061 229.273  1.00 20.00     0.263 C 
HETATM   22  O5X DGX  2997      -4.080  38.463 229.455  1.00 20.00    -0.354 OA
HETATM   23  C5X DGX  2997      -3.931  39.283 228.285  1.00 20.00     0.152 C 
HETATM   24  C4X DGX  2997      -4.896  38.810 227.186  1.00 20.00     0.175 C 
HETATM   25  C6X DGX  2997      -4.225  40.717 228.700  1.00 20.00     0.042 C 
HETATM   26  C3X DGX  2997      -4.733  37.314 226.900  1.00 20.00     0.154 C 
HETATM   27  C2X DGX  2997      -4.840  36.536 228.213  1.00 20.00     0.095 C 
BRANCH  24  28
HETATM   28  O4X DGX  2997      -4.665  39.539 225.970  1.00 20.00    -0.390 OA
ATOM     29  H4X DGX  2997      -5.504  39.795 225.605  1.00  0.00     0.210 HD
ENDBRANCH  24  28
BRANCH  26  30
HETATM   30  O3X DGX  2997      -3.498  37.057 226.203  1.00 20.00    -0.393 OA
ATOM     31  H3X DGX  2997      -3.606  36.449 225.481  1.00  0.00     0.210 HD
ENDBRANCH  26  30
ENDBRANCH  20  21
ENDBRANCH   3  20
BRANCH  12  32
HETATM   32  O12 DGX  2997       2.489  38.557 235.046  1.00 20.00    -0.395 OA
ATOM     33  H12 DGX  2997       2.124  39.205 235.636  1.00  0.00     0.210 HD
ENDBRANCH  12  32
BRANCH  14  34
HETATM   34  O14 DGX  2997      -0.371  35.509 237.691  1.00 20.00    -0.389 OA
ATOM     35  H14 DGX  2997       0.352  35.572 238.305  1.00  0.00     0.210 HD
ENDBRANCH  14  34
BRANCH  17  36
HETATM   36  C20 DGX  2997       3.086  36.252 238.217  1.00 20.00    -0.045 A 
HETATM   37  C21 DGX  2997       2.861  35.296 239.328  1.00 20.00     0.213 A 
HETATM   38  O21 DGX  2997       3.460  35.939 240.479  1.00 20.00    -0.314 OA
HETATM   39  C23 DGX  2997       4.062  37.070 240.100  1.00 20.00     0.283 A 
HETATM   40  C22 DGX  2997       3.800  37.285 238.694  1.00 20.00     0.087 A 
HETATM   41  O23 DGX  2997       4.656  37.767 240.928  1.00 20.00    -0.260 OA
ENDBRANCH  17  36
TORSDOF 7
ENDMDL
MODEL 8
REMARK VINA RESULT:      -7.2      2.978      3.902
REMARK  7 active torsions:
REMARK  status: ('A' for Active; 'I' for Inactive)
REMARK    1  A    between atoms: C3_3  and  O3_4 
REMARK    2  A    between atoms: C1X_31  and  O3_4 
REMARK    3  A    between atoms: C12_13  and  O12_14 
REMARK    4  A    between atoms: C14_17  and  O14_18 
REMARK    5  A    between atoms: C17_22  and  C20_25 
REMARK    6  A    between atoms: C3X_33  and  O3X_34 
REMARK    7  A    between atoms: C4X_36  and  O4X_37 
ROOT
HETATM    1  C1  DGX  2997      -1.984  35.333 231.400  1.00 20.00     0.012 C 
HETATM    2  C2  DGX  2997      -3.474  35.223 231.725  1.00 20.00     0.033 C 
HETATM    3  C3  DGX  2997      -4.262  36.455 231.278  1.00 20.00     0.125 C 
HETATM    4  C4  DGX  2997      -3.659  37.685 231.943  1.00 20.00     0.037 C 
HETATM    5  C5  DGX  2997      -2.164  37.861 231.684  1.00 20.00    -0.004 C 
HETATM    6  C6  DGX  2997      -1.623  39.108 232.378  1.00 20.00     0.006 C 
HETATM    7  C7  DGX  2997      -1.528  38.907 233.889  1.00 20.00     0.008 C 
HETATM    8  C8  DGX  2997      -0.567  37.770 234.219  1.00 20.00     0.026 C 
HETATM    9  C9  DGX  2997      -0.947  36.474 233.498  1.00 20.00     0.003 C 
HETATM   10  C10 DGX  2997      -1.304  36.591 231.961  1.00 20.00    -0.036 C 
HETATM   11  C11 DGX  2997       0.231  35.527 233.698  1.00 20.00     0.038 C 
HETATM   12  C12 DGX  2997       0.620  35.303 235.152  1.00 20.00     0.130 C 
HETATM   13  C13 DGX  2997       0.922  36.603 235.988  1.00 20.00     0.021 C 
HETATM   14  C14 DGX  2997      -0.242  37.629 235.762  1.00 20.00     0.072 C 
HETATM   15  C15 DGX  2997      -1.319  37.058 236.712  1.00 20.00     0.040 C 
HETATM   16  C16 DGX  2997      -0.591  36.593 237.972  1.00 20.00     0.013 C 
HETATM   17  C17 DGX  2997       0.800  36.171 237.506  1.00 20.00     0.030 C 
HETATM   18  C18 DGX  2997       2.281  37.218 235.599  1.00 20.00     0.022 C 
HETATM   19  C19 DGX  2997      -0.052  36.666 231.066  1.00 20.00     0.016 C 
ENDROOT
BRANCH   3  20
HETATM   20  O3  DGX  2997      -4.210  36.654 229.858  1.00 20.00    -0.356 OA
BRANCH  20  21
HETATM   21  C1X DGX  2997      -4.884  37.781 229.268  1.00 20.00     0.263 C 
HETATM   22  O5X DGX  2997      -5.929  37.347 228.395  1.00 20.00    -0.354 OA
HETATM   23  C5X DGX  2997      -6.656  38.383 227.714  1.00 20.00     0.152 C 
HETATM   24  C4X DGX  2997      -5.690  39.245 226.885  1.00 20.00     0.175 C 
HETATM   25  C6X DGX  2997      -7.689  37.701 226.829  1.00 20.00     0.042 C 
HETATM   26  C3X DGX  2997      -4.537  39.778 227.740  1.00 20.00     0.154 C 
HETATM   27  C2X DGX  2997      -3.872  38.611 228.474  1.00 20.00     0.095 C 
BRANCH  24  28
HETATM   28  O4X DGX  2997      -6.386  40.359 226.305  1.00 20.00    -0.390 OA
ATOM     29  H4X DGX  2997      -7.122  40.030 225.803  1.00  0.00     0.210 HD
ENDBRANCH  24  28
BRANCH  26  30
HETATM   30  O3X DGX  2997      -4.998  40.807 228.639  1.00 20.00    -0.393 OA
ATOM     31  H3X DGX  2997      -5.435  40.454 229.404  1.00  0.00     0.210 HD
ENDBRANCH  26  30
ENDBRANCH  20  21
ENDBRANCH   3  20
BRANCH  12  32
HETATM   32  O12 DGX  2997       1.753  34.422 235.163  1.00 20.00    -0.395 OA
ATOM     33  H12 DGX  2997       1.673  33.866 235.929  1.00  0.00     0.210 HD
ENDBRANCH  12  32
BRANCH  14  34
HETATM   34  O14 DGX  2997       0.108  38.931 236.361  1.00 20.00    -0.389 OA
ATOM     35  H14 DGX  2997       0.076  39.613 235.699  1.00  0.00     0.210 HD
ENDBRANCH  14  34
BRANCH  17  36
HETATM   36  C20 DGX  2997       1.869  36.630 238.455  1.00 20.00    -0.045 A 
HETATM   37  C21 DGX  2997       2.910  35.729 239.005  1.00 20.00     0.213 A 
HETATM   38  O21 DGX  2997       3.627  36.551 239.958  1.00 20.00    -0.314 OA
HETATM   39  C23 DGX  2997       3.163  37.803 239.911  1.00 20.00     0.283 A 
HETATM   40  C22 DGX  2997       2.042  37.847 238.999  1.00 20.00     0.087 A 
HETATM   41  O23 DGX  2997       3.653  38.675 240.634  1.00 20.00    -0.260 OA
ENDBRANCH  17  36
TORSDOF 7
ENDMDL
MODEL 9
REMARK VINA RESULT:      -7.2      1.739     10.323
REMARK  7 active torsions:
REMARK  status: ('A' for Active; 'I' for Inactive)
REMARK    1  A    between atoms: C3_3  and  O3_4 
REMARK    2  A    between atoms: C1X_31  and  O3_4 
REMARK    3  A    between atoms: C12_13  and  O12_14 
REMARK    4  A    between atoms: C14_17  and  O14_18 
REMARK    5  A    between atoms: C17_22  and  C20_25 
REMARK    6  A    between atoms: C3X_33  and  O3X_34 
REMARK    7  A    between atoms: C4X_36  and  O4X_37 
ROOT
HETATM    1  C1  DGX  2997      -1.912  34.338 233.036  1.00 20.00     0.012 C 
HETATM    2  C2  DGX  2997      -0.831  33.480 233.695  1.00 20.00     0.033 C 
HETATM    3  C3  DGX  2997       0.235  34.321 234.398  1.00 20.00     0.125 C 
HETATM    4  C4  DGX  2997       0.853  35.270 233.379  1.00 20.00     0.037 C 
HETATM    5  C5  DGX  2997      -0.162  36.154 232.658  1.00 20.00    -0.004 C 
HETATM    6  C6  DGX  2997       0.521  37.078 231.653  1.00 20.00     0.006 C 
HETATM    7  C7  DGX  2997       1.002  36.307 230.427  1.00 20.00     0.008 C 
HETATM    8  C8  DGX  2997      -0.177  35.665 229.701  1.00 20.00     0.026 C 
HETATM    9  C9  DGX  2997      -1.008  34.782 230.635  1.00 20.00     0.003 C 
HETATM   10  C10 DGX  2997      -1.374  35.387 232.050  1.00 20.00    -0.036 C 
HETATM   11  C11 DGX  2997      -2.277  34.440 229.861  1.00 20.00     0.038 C 
HETATM   12  C12 DGX  2997      -2.032  33.799 228.502  1.00 20.00     0.130 C 
HETATM   13  C13 DGX  2997      -1.095  34.603 227.525  1.00 20.00     0.021 C 
HETATM   14  C14 DGX  2997       0.201  35.025 228.303  1.00 20.00     0.072 C 
HETATM   15  C15 DGX  2997       1.002  33.705 228.267  1.00 20.00     0.040 C 
HETATM   16  C16 DGX  2997       0.790  33.099 226.881  1.00 20.00     0.013 C 
HETATM   17  C17 DGX  2997      -0.602  33.553 226.448  1.00 20.00     0.030 C 
HETATM   18  C18 DGX  2997      -1.814  35.835 226.943  1.00 20.00     0.022 C 
HETATM   19  C19 DGX  2997      -2.566  36.362 231.989  1.00 20.00     0.016 C 
ENDROOT
BRANCH   3  20
HETATM   20  O3  DGX  2997      -0.306  35.114 235.464  1.00 20.00    -0.356 OA
BRANCH  20  21
HETATM   21  C1X DGX  2997       0.450  36.222 235.987  1.00 20.00     0.263 C 
HETATM   22  O5X DGX  2997       0.971  35.915 237.282  1.00 20.00    -0.354 OA
HETATM   23  C5X DGX  2997       1.718  36.959 237.927  1.00 20.00     0.152 C 
HETATM   24  C4X DGX  2997       0.847  38.218 238.068  1.00 20.00     0.175 C 
HETATM   25  C6X DGX  2997       2.150  36.429 239.287  1.00 20.00     0.042 C 
HETATM   26  C3X DGX  2997       0.252  38.643 236.722  1.00 20.00     0.154 C 
HETATM   27  C2X DGX  2997      -0.461  37.449 236.086  1.00 20.00     0.095 C 
BRANCH  24  28
HETATM   28  O4X DGX  2997       1.622  39.306 238.594  1.00 20.00    -0.390 OA
ATOM     29  H4X DGX  2997       1.031  39.998 238.865  1.00  0.00     0.210 HD
ENDBRANCH  24  28
BRANCH  26  30
HETATM   30  O3X DGX  2997       1.269  39.202 235.866  1.00 20.00    -0.393 OA
ATOM     31  H3X DGX  2997       1.132  38.990 234.951  1.00  0.00     0.210 HD
ENDBRANCH  26  30
ENDBRANCH  20  21
ENDBRANCH   3  20
BRANCH  12  32
HETATM   32  O12 DGX  2997      -3.313  33.572 227.898  1.00 20.00    -0.395 OA
ATOM     33  H12 DGX  2997      -3.668  34.418 227.654  1.00  0.00     0.210 HD
ENDBRANCH  12  32
BRANCH  14  34
HETATM   34  O14 DGX  2997       1.002  35.953 227.483  1.00 20.00    -0.389 OA
ATOM     35  H14 DGX  2997       1.923  35.870 227.703  1.00  0.00     0.210 HD
ENDBRANCH  14  34
BRANCH  17  36
HETATM   36  C20 DGX  2997      -0.631  33.962 225.004  1.00 20.00    -0.045 A 
HETATM   37  C21 DGX  2997      -1.744  33.622 224.084  1.00 20.00     0.213 A 
HETATM   38  O21 DGX  2997      -1.294  34.091 222.790  1.00 20.00    -0.314 OA
HETATM   39  C23 DGX  2997      -0.126  34.727 222.923  1.00 20.00     0.283 A 
HETATM   40  C22 DGX  2997       0.307  34.616 224.298  1.00 20.00     0.087 A 
HETATM   41  O23 DGX  2997       0.427  35.224 221.938  1.00 20.00    -0.260 OA
ENDBRANCH  17  36
TORSDOF 7
ENDMDL
