MODEL 1
REMARK VINA RESULT:      -6.6      0.000      0.000
REMARK  9 active torsions:
REMARK  status: ('A' for Active; 'I' for Inactive)
REMARK    1  A    between atoms: C20_25  and  CA_1 
REMARK    2  A    between atoms: C1_6  and  OL_3 
REMARK    3  A    between atoms: CA1_4  and  OL_3 
REMARK    4  A    between atoms: CA1_4  and  CB1_5 
REMARK    5  A    between atoms: CB1_5  and  NI_26 
REMARK    6  A    between atoms: C4_11  and  C7_12 
REMARK    7  A    between atoms: C20_25  and  C7_12 
REMARK    8  A    between atoms: C7_12  and  C8_13 
REMARK    9  A    between atoms: C18_23  and  C20_25 
ROOT
HETATM    1  C7  CTX  2740       1.192  35.634 236.565  1.00 20.00    -0.013 C 
ENDROOT
BRANCH   1   2
HETATM    2  C20 CTX  2740       2.474  35.542 237.338  1.00 20.00    -0.037 C 
BRANCH   2   3
HETATM    3  C18 CTX  2740       2.959  36.739 238.191  1.00 20.00    -0.029 A 
HETATM    4  C17 CTX  2740       3.251  36.568 239.587  1.00 20.00     0.012 A 
HETATM    5  C16 CTX  2740       3.693  37.662 240.367  1.00 20.00     0.001 A 
HETATM    6  C15 CTX  2740       3.850  38.935 239.762  1.00 20.00     0.000 A 
HETATM    7  C14 CTX  2740       3.565  39.116 238.378  1.00 20.00     0.001 A 
HETATM    8  C19 CTX  2740       3.121  38.025 237.595  1.00 20.00     0.012 A 
ENDBRANCH   2   3
BRANCH   2   9
HETATM    9  CA  CTX  2740       3.465  34.327 237.396  1.00 20.00     0.036 C 
HETATM   10  CB  CTX  2740       3.211  33.226 236.357  1.00 20.00     0.010 C 
ENDBRANCH   2   9
ENDBRANCH   1   2
BRANCH   1  11
HETATM   11  C4  CTX  2740       0.968  35.831 234.987  1.00 20.00    -0.028 A 
HETATM   12  C3  CTX  2740       1.316  37.100 234.362  1.00 20.00     0.014 A 
HETATM   13  C2  CTX  2740       1.182  37.306 232.977  1.00 20.00     0.033 A 
HETATM   14  C1  CTX  2740       0.687  36.233 232.119  1.00 20.00     0.050 A 
HETATM   15  C6  CTX  2740       0.323  34.959 232.720  1.00 20.00     0.092 A 
HETATM   16  C5  CTX  2740       0.469  34.779 234.136  1.00 20.00    -0.008 A 
BRANCH  14  17
HETATM   17  OL  CTX  2740       0.539  36.311 230.729  1.00 20.00    -0.353 OA
BRANCH  17  18
HETATM   18  CA1 CTX  2740      -0.389  37.206 230.009  1.00 20.00     0.205 C 
BRANCH  18  19
HETATM   19  CB1 CTX  2740      -1.756  37.270 230.695  1.00 20.00     0.297 C 
BRANCH  19  20
HETATM   20  NI  CTX  2740      -2.136  38.729 231.039  1.00 20.00     0.082 N 
HETATM   21  C21 CTX  2740      -2.026  39.058 232.483  1.00 20.00     0.309 C 
HETATM   22  C22 CTX  2740      -1.364  39.735 230.227  1.00 20.00     0.309 C 
ENDBRANCH  19  20
ENDBRANCH  18  19
ENDBRANCH  17  18
ENDBRANCH  14  17
ENDBRANCH   1  11
BRANCH   1  23
HETATM   23  C8  CTX  2740      -0.168  35.525 237.246  1.00 20.00    -0.043 A 
HETATM   24  C13 CTX  2740      -1.136  36.602 237.146  1.00 20.00     0.008 A 
HETATM   25  C12 CTX  2740      -2.384  36.518 237.773  1.00 20.00     0.000 A 
HETATM   26  C11 CTX  2740      -2.725  35.355 238.533  1.00 20.00    -0.004 A 
HETATM   27  C10 CTX  2740      -1.803  34.277 238.654  1.00 20.00    -0.022 A 
HETATM   28  C9  CTX  2740      -0.526  34.349 238.021  1.00 20.00     0.066 A 
ENDBRANCH   1  23
TORSDOF 9
ENDMDL
MODEL 2
REMARK VINA RESULT:      -6.5      0.944      2.896
REMARK  9 active torsions:
REMARK  status: ('A' for Active; 'I' for Inactive)
REMARK    1  A    between atoms: C20_25  and  CA_1 
REMARK    2  A    between atoms: C1_6  and  OL_3 
REMARK    3  A    between atoms: CA1_4  and  OL_3 
REMARK    4  A    between atoms: CA1_4  and  CB1_5 
REMARK    5  A    between atoms: CB1_5  and  NI_26 
REMARK    6  A    between atoms: C4_11  and  C7_12 
REMARK    7  A    between atoms: C20_25  and  C7_12 
REMARK    8  A    between atoms: C7_12  and  C8_13 
REMARK    9  A    between atoms: C18_23  and  C20_25 
ROOT
HETATM    1  C7  CTX  2740       1.120  35.800 236.401  1.00 20.00    -0.013 C 
ENDROOT
BRANCH   1   2
HETATM    2  C20 CTX  2740       0.843  36.844 237.441  1.00 20.00    -0.037 C 
BRANCH   2   3
HETATM    3  C18 CTX  2740       2.004  37.452 238.266  1.00 20.00    -0.029 A 
HETATM    4  C17 CTX  2740       2.479  36.792 239.450  1.00 20.00     0.012 A 
HETATM    5  C16 CTX  2740       3.539  37.347 240.205  1.00 20.00     0.001 A 
HETATM    6  C15 CTX  2740       4.137  38.564 239.784  1.00 20.00     0.000 A 
HETATM    7  C14 CTX  2740       3.673  39.226 238.610  1.00 20.00     0.001 A 
HETATM    8  C19 CTX  2740       2.613  38.674 237.854  1.00 20.00     0.012 A 
ENDBRANCH   2   3
BRANCH   2   9
HETATM    9  CA  CTX  2740      -0.551  37.437 237.848  1.00 20.00     0.036 C 
HETATM   10  CB  CTX  2740      -1.730  36.459 237.749  1.00 20.00     0.010 C 
ENDBRANCH   2   9
ENDBRANCH   1   2
BRANCH   1  11
HETATM   11  C4  CTX  2740       0.977  35.893 234.804  1.00 20.00    -0.028 A 
HETATM   12  C3  CTX  2740       0.453  34.757 234.059  1.00 20.00     0.014 A 
HETATM   13  C2  CTX  2740       0.266  34.805 232.666  1.00 20.00     0.033 A 
HETATM   14  C1  CTX  2740       0.593  36.018 231.922  1.00 20.00     0.050 A 
HETATM   15  C6  CTX  2740       1.128  37.164 232.641  1.00 20.00     0.092 A 
HETATM   16  C5  CTX  2740       1.310  37.085 234.062  1.00 20.00    -0.008 A 
BRANCH  14  17
HETATM   17  OL  CTX  2740       0.422  36.193 230.544  1.00 20.00    -0.353 OA
BRANCH  17  18
HETATM   18  CA1 CTX  2740      -0.228  37.349 229.895  1.00 20.00     0.205 C 
BRANCH  18  19
HETATM   19  CB1 CTX  2740      -1.701  37.462 230.291  1.00 20.00     0.297 C 
BRANCH  19  20
HETATM   20  NI  CTX  2740      -2.052  38.908 230.718  1.00 20.00     0.082 N 
HETATM   21  C21 CTX  2740      -1.905  39.160 232.174  1.00 20.00     0.309 C 
HETATM   22  C22 CTX  2740      -1.280  39.942 229.942  1.00 20.00     0.309 C 
ENDBRANCH  19  20
ENDBRANCH  18  19
ENDBRANCH  17  18
ENDBRANCH  14  17
ENDBRANCH   1  11
BRANCH   1  23
HETATM   23  C8  CTX  2740       1.631  34.412 236.770  1.00 20.00    -0.043 A 
HETATM   24  C13 CTX  2740       2.991  34.014 236.456  1.00 20.00     0.008 A 
HETATM   25  C12 CTX  2740       3.469  32.740 236.781  1.00 20.00     0.000 A 
HETATM   26  C11 CTX  2740       2.611  31.801 237.435  1.00 20.00    -0.004 A 
HETATM   27  C10 CTX  2740       1.271  32.153 237.761  1.00 20.00    -0.022 A 
HETATM   28  C9  CTX  2740       0.769  33.448 237.433  1.00 20.00     0.066 A 
ENDBRANCH   1  23
TORSDOF 9
ENDMDL
MODEL 3
REMARK VINA RESULT:      -6.4      2.007      4.587
REMARK  9 active torsions:
REMARK  status: ('A' for Active; 'I' for Inactive)
REMARK    1  A    between atoms: C20_25  and  CA_1 
REMARK    2  A    between atoms: C1_6  and  OL_3 
REMARK    3  A    between atoms: CA1_4  and  OL_3 
REMARK    4  A    between atoms: CA1_4  and  CB1_5 
REMARK    5  A    between atoms: CB1_5  and  NI_26 
REMARK    6  A    between atoms: C4_11  and  C7_12 
REMARK    7  A    between atoms: C20_25  and  C7_12 
REMARK    8  A    between atoms: C7_12  and  C8_13 
REMARK    9  A    between atoms: C18_23  and  C20_25 
ROOT
HETATM    1  C7  CTX  2740       0.409  36.268 235.470  1.00 20.00    -0.013 C 
ENDROOT
BRANCH   1   2
HETATM    2  C20 CTX  2740       0.188  34.859 235.933  1.00 20.00    -0.037 C 
BRANCH   2   3
HETATM    3  C18 CTX  2740       1.261  33.774 235.672  1.00 20.00    -0.029 A 
HETATM    4  C17 CTX  2740       2.445  33.711 236.483  1.00 20.00     0.012 A 
HETATM    5  C16 CTX  2740       3.426  32.720 236.245  1.00 20.00     0.001 A 
HETATM    6  C15 CTX  2740       3.234  31.782 235.197  1.00 20.00     0.000 A 
HETATM    7  C14 CTX  2740       2.063  31.835 234.387  1.00 20.00     0.001 A 
HETATM    8  C19 CTX  2740       1.081  32.825 234.622  1.00 20.00     0.012 A 
ENDBRANCH   2   3
BRANCH   2   9
HETATM    9  CA  CTX  2740      -1.067  34.289 236.681  1.00 20.00     0.036 C 
HETATM   10  CB  CTX  2740      -1.697  35.234 237.714  1.00 20.00     0.010 C 
ENDBRANCH   2   9
ENDBRANCH   1   2
BRANCH   1  11
HETATM   11  C4  CTX  2740       0.055  36.942 234.056  1.00 20.00    -0.028 A 
HETATM   12  C3  CTX  2740       0.784  36.536 232.861  1.00 20.00     0.014 A 
HETATM   13  C2  CTX  2740       0.480  37.062 231.592  1.00 20.00     0.033 A 
HETATM   14  C1  CTX  2740      -0.594  38.040 231.441  1.00 20.00     0.050 A 
HETATM   15  C6  CTX  2740      -1.330  38.469 232.619  1.00 20.00     0.092 A 
HETATM   16  C5  CTX  2740      -0.997  37.916 233.901  1.00 20.00    -0.008 A 
BRANCH  14  17
HETATM   17  OL  CTX  2740      -1.004  38.609 230.229  1.00 20.00    -0.353 OA
BRANCH  17  18
HETATM   18  CA1 CTX  2740      -1.596  39.952 230.063  1.00 20.00     0.205 C 
BRANCH  18  19
HETATM   19  CB1 CTX  2740      -0.598  40.937 229.452  1.00 20.00     0.297 C 
BRANCH  19  20
HETATM   20  NI  CTX  2740      -1.235  42.336 229.278  1.00 20.00     0.082 N 
HETATM   21  C21 CTX  2740      -0.287  43.461 229.484  1.00 20.00     0.309 C 
HETATM   22  C22 CTX  2740      -1.930  42.493 227.952  1.00 20.00     0.309 C 
ENDBRANCH  19  20
ENDBRANCH  18  19
ENDBRANCH  17  18
ENDBRANCH  14  17
ENDBRANCH   1  11
BRANCH   1  23
HETATM   23  C8  CTX  2740       1.037  37.323 236.375  1.00 20.00    -0.043 A 
HETATM   24  C13 CTX  2740       0.206  38.201 237.178  1.00 20.00     0.008 A 
HETATM   25  C12 CTX  2740       0.769  39.179 238.005  1.00 20.00     0.000 A 
HETATM   26  C11 CTX  2740       2.190  39.328 238.070  1.00 20.00    -0.004 A 
HETATM   27  C10 CTX  2740       3.039  38.485 237.299  1.00 20.00    -0.022 A 
HETATM   28  C9  CTX  2740       2.479  37.485 236.449  1.00 20.00     0.066 A 
ENDBRANCH   1  23
TORSDOF 9
ENDMDL
MODEL 4
REMARK VINA RESULT:      -6.3      1.620      3.572
REMARK  9 active torsions:
REMARK  status: ('A' for Active; 'I' for Inactive)
REMARK    1  A    between atoms: C20_25  and  CA_1 
REMARK    2  A    between atoms: C1_6  and  OL_3 
REMARK    3  A    between atoms: CA1_4  and  OL_3 
REMARK    4  A    between atoms: CA1_4  and  CB1_5 
REMARK    5  A    between atoms: CB1_5  and  NI_26 
REMARK    6  A    between atoms: C4_11  and  C7_12 
REMARK    7  A    between atoms: C20_25  and  C7_12 
REMARK    8  A    between atoms: C7_12  and  C8_13 
REMARK    9  A    between atoms: C18_23  and  C20_25 
ROOT
HETATM    1  C7  CTX  2740       0.644  35.580 235.926  1.00 20.00    -0.013 C 
ENDROOT
BRANCH   1   2
HETATM    2  C20 CTX  2740       0.434  36.100 237.317  1.00 20.00    -0.037 C 
BRANCH   2   3
HETATM    3  C18 CTX  2740       1.484  37.033 237.968  1.00 20.00    -0.029 A 
HETATM    4  C17 CTX  2740       1.757  38.326 237.407  1.00 20.00     0.012 A 
HETATM    5  C16 CTX  2740       2.717  39.178 238.001  1.00 20.00     0.001 A 
HETATM    6  C15 CTX  2740       3.411  38.750 239.162  1.00 20.00     0.000 A 
HETATM    7  C14 CTX  2740       3.147  37.469 239.728  1.00 20.00     0.001 A 
HETATM    8  C19 CTX  2740       2.190  36.614 239.136  1.00 20.00     0.012 A 
ENDBRANCH   2   3
BRANCH   2   9
HETATM    9  CA  CTX  2740      -0.773  35.800 238.273  1.00 20.00     0.036 C 
HETATM   10  CB  CTX  2740      -2.106  36.442 237.863  1.00 20.00     0.010 C 
ENDBRANCH   2   9
ENDBRANCH   1   2
BRANCH   1  11
HETATM   11  C4  CTX  2740       0.147  36.191 234.527  1.00 20.00    -0.028 A 
HETATM   12  C3  CTX  2740       1.126  36.602 233.530  1.00 20.00     0.014 A 
HETATM   13  C2  CTX  2740       0.741  37.099 232.272  1.00 20.00     0.033 A 
HETATM   14  C1  CTX  2740      -0.673  37.212 231.928  1.00 20.00     0.050 A 
HETATM   15  C6  CTX  2740      -1.672  36.819 232.909  1.00 20.00     0.092 A 
HETATM   16  C5  CTX  2740      -1.249  36.316 234.185  1.00 20.00    -0.008 A 
BRANCH  14  17
HETATM   17  OL  CTX  2740      -1.174  37.664 230.701  1.00 20.00    -0.353 OA
BRANCH  17  18
HETATM   18  CA1 CTX  2740      -1.843  38.960 230.467  1.00 20.00     0.205 C 
BRANCH  18  19
HETATM   19  CB1 CTX  2740      -0.905  39.966 229.798  1.00 20.00     0.297 C 
BRANCH  19  20
HETATM   20  NI  CTX  2740      -1.488  41.398 229.864  1.00 20.00     0.082 N 
HETATM   21  C21 CTX  2740      -0.516  42.463 229.506  1.00 20.00     0.309 C 
HETATM   22  C22 CTX  2740      -2.738  41.551 229.041  1.00 20.00     0.309 C 
ENDBRANCH  19  20
ENDBRANCH  18  19
ENDBRANCH  17  18
ENDBRANCH  14  17
ENDBRANCH   1  11
BRANCH   1  23
HETATM   23  C8  CTX  2740       1.438  34.307 235.653  1.00 20.00    -0.043 A 
HETATM   24  C13 CTX  2740       2.676  34.038 236.363  1.00 20.00     0.008 A 
HETATM   25  C12 CTX  2740       3.418  32.878 236.116  1.00 20.00     0.000 A 
HETATM   26  C11 CTX  2740       2.962  31.931 235.147  1.00 20.00    -0.004 A 
HETATM   27  C10 CTX  2740       1.753  32.158 234.431  1.00 20.00    -0.022 A 
HETATM   28  C9  CTX  2740       0.985  33.337 234.671  1.00 20.00     0.066 A 
ENDBRANCH   1  23
TORSDOF 9
ENDMDL
MODEL 5
REMARK VINA RESULT:      -6.3      1.618      3.302
REMARK  9 active torsions:
REMARK  status: ('A' for Active; 'I' for Inactive)
REMARK    1  A    between atoms: C20_25  and  CA_1 
REMARK    2  A    between atoms: C1_6  and  OL_3 
REMARK    3  A    between atoms: CA1_4  and  OL_3 
REMARK    4  A    between atoms: CA1_4  and  CB1_5 
REMARK    5  A    between atoms: CB1_5  and  NI_26 
REMARK    6  A    between atoms: C4_11  and  C7_12 
REMARK    7  A    between atoms: C20_25  and  C7_12 
REMARK    8  A    between atoms: C7_12  and  C8_13 
REMARK    9  A    between atoms: C18_23  and  C20_25 
ROOT
HETATM    1  C7  CTX  2740       1.138  35.485 236.718  1.00 20.00    -0.013 C 
ENDROOT
BRANCH   1   2
HETATM    2  C20 CTX  2740       1.270  35.784 238.181  1.00 20.00    -0.037 C 
BRANCH   2   3
HETATM    3  C18 CTX  2740       2.253  36.876 238.670  1.00 20.00    -0.029 A 
HETATM    4  C17 CTX  2740       2.981  36.705 239.896  1.00 20.00     0.012 A 
HETATM    5  C16 CTX  2740       3.879  37.703 240.342  1.00 20.00     0.001 A 
HETATM    6  C15 CTX  2740       4.060  38.879 239.569  1.00 20.00     0.000 A 
HETATM    7  C14 CTX  2740       3.343  39.058 238.351  1.00 20.00     0.001 A 
HETATM    8  C19 CTX  2740       2.444  38.063 237.902  1.00 20.00     0.012 A 
ENDBRANCH   2   3
BRANCH   2   9
HETATM    9  CA  CTX  2740       0.512  35.090 239.367  1.00 20.00     0.036 C 
HETATM   10  CB  CTX  2740      -0.938  34.685 239.067  1.00 20.00     0.010 C 
ENDBRANCH   2   9
ENDBRANCH   1   2
BRANCH   1  11
HETATM   11  C4  CTX  2740       0.431  36.349 235.563  1.00 20.00    -0.028 A 
HETATM   12  C3  CTX  2740      -0.998  36.622 235.639  1.00 20.00     0.014 A 
HETATM   13  C2  CTX  2740      -1.655  37.412 234.679  1.00 20.00     0.033 A 
HETATM   14  C1  CTX  2740      -0.906  37.990 233.566  1.00 20.00     0.050 A 
HETATM   15  C6  CTX  2740       0.520  37.724 233.461  1.00 20.00     0.092 A 
HETATM   16  C5  CTX  2740       1.163  36.913 234.456  1.00 20.00    -0.008 A 
BRANCH  14  17
HETATM   17  OL  CTX  2740      -1.444  38.813 232.570  1.00 20.00    -0.353 OA
BRANCH  17  18
HETATM   18  CA1 CTX  2740      -1.272  38.630 231.115  1.00 20.00     0.205 C 
BRANCH  18  19
HETATM   19  CB1 CTX  2740      -2.604  38.739 230.371  1.00 20.00     0.297 C 
BRANCH  19  20
HETATM   20  NI  CTX  2740      -2.634  39.994 229.467  1.00 20.00     0.082 N 
HETATM   21  C21 CTX  2740      -3.961  40.657 229.396  1.00 20.00     0.309 C 
HETATM   22  C22 CTX  2740      -1.582  41.003 229.843  1.00 20.00     0.309 C 
ENDBRANCH  19  20
ENDBRANCH  18  19
ENDBRANCH  17  18
ENDBRANCH  14  17
ENDBRANCH   1  11
BRANCH   1  23
HETATM   23  C8  CTX  2740       1.727  34.222 236.097  1.00 20.00    -0.043 A 
HETATM   24  C13 CTX  2740       1.009  33.499 235.063  1.00 20.00     0.008 A 
HETATM   25  C12 CTX  2740       1.535  32.335 234.493  1.00 20.00     0.000 A 
HETATM   26  C11 CTX  2740       2.801  31.835 234.928  1.00 20.00    -0.004 A 
HETATM   27  C10 CTX  2740       3.536  32.515 235.940  1.00 20.00    -0.022 A 
HETATM   28  C9  CTX  2740       3.012  33.703 236.532  1.00 20.00     0.066 A 
ENDBRANCH   1  23
TORSDOF 9
ENDMDL
MODEL 6
REMARK VINA RESULT:      -6.3      1.928      4.652
REMARK  9 active torsions:
REMARK  status: ('A' for Active; 'I' for Inactive)
REMARK    1  A    between atoms: C20_25  and  CA_1 
REMARK    2  A    between atoms: C1_6  and  OL_3 
REMARK    3  A    between atoms: CA1_4  and  OL_3 
REMARK    4  A    between atoms: CA1_4  and  CB1_5 
REMARK    5  A    between atoms: CB1_5  and  NI_26 
REMARK    6  A    between atoms: C4_11  and  C7_12 
REMARK    7  A    between atoms: C20_25  and  C7_12 
REMARK    8  A    between atoms: C7_12  and  C8_13 
REMARK    9  A    between atoms: C18_23  and  C20_25 
ROOT
HETATM    1  C7  CTX  2740       0.552  36.322 235.663  1.00 20.00    -0.013 C 
ENDROOT
BRANCH   1   2
HETATM    2  C20 CTX  2740       0.336  34.931 236.180  1.00 20.00    -0.037 C 
BRANCH   2   3
HETATM    3  C18 CTX  2740       1.307  33.792 235.783  1.00 20.00    -0.029 A 
HETATM    4  C17 CTX  2740       0.974  32.889 234.717  1.00 20.00     0.012 A 
HETATM    5  C16 CTX  2740       1.860  31.848 234.355  1.00 20.00     0.001 A 
HETATM    6  C15 CTX  2740       3.087  31.699 235.052  1.00 20.00     0.000 A 
HETATM    7  C14 CTX  2740       3.427  32.588 236.111  1.00 20.00     0.001 A 
HETATM    8  C19 CTX  2740       2.544  33.630 236.476  1.00 20.00     0.012 A 
ENDBRANCH   2   3
BRANCH   2   9
HETATM    9  CA  CTX  2740      -0.819  34.432 237.116  1.00 20.00     0.036 C 
HETATM   10  CB  CTX  2740      -1.762  35.528 237.632  1.00 20.00     0.010 C 
ENDBRANCH   2   9
ENDBRANCH   1   2
BRANCH   1  11
HETATM   11  C4  CTX  2740       0.141  36.956 234.246  1.00 20.00    -0.028 A 
HETATM   12  C3  CTX  2740       0.931  36.647 233.061  1.00 20.00     0.014 A 
HETATM   13  C2  CTX  2740       0.585  37.140 231.790  1.00 20.00     0.033 A 
HETATM   14  C1  CTX  2740      -0.596  37.983 231.625  1.00 20.00     0.050 A 
HETATM   15  C6  CTX  2740      -1.395  38.315 232.793  1.00 20.00     0.092 A 
HETATM   16  C5  CTX  2740      -1.017  37.799 234.078  1.00 20.00    -0.008 A 
BRANCH  14  17
HETATM   17  OL  CTX  2740      -1.053  38.505 230.409  1.00 20.00    -0.353 OA
BRANCH  17  18
HETATM   18  CA1 CTX  2740      -1.666  39.835 230.218  1.00 20.00     0.205 C 
BRANCH  18  19
HETATM   19  CB1 CTX  2740      -3.024  39.735 229.521  1.00 20.00     0.297 C 
BRANCH  19  20
HETATM   20  NI  CTX  2740      -3.508  41.126 229.046  1.00 20.00     0.082 N 
HETATM   21  C21 CTX  2740      -2.424  41.999 228.530  1.00 20.00     0.309 C 
HETATM   22  C22 CTX  2740      -4.616  41.036 228.031  1.00 20.00     0.309 C 
ENDBRANCH  19  20
ENDBRANCH  18  19
ENDBRANCH  17  18
ENDBRANCH  14  17
ENDBRANCH   1  11
BRANCH   1  23
HETATM   23  C8  CTX  2740       1.233  37.397 236.505  1.00 20.00    -0.043 A 
HETATM   24  C13 CTX  2740       2.663  37.355 236.745  1.00 20.00     0.008 A 
HETATM   25  C12 CTX  2740       3.298  38.330 237.523  1.00 20.00     0.000 A 
HETATM   26  C11 CTX  2740       2.535  39.393 238.099  1.00 20.00    -0.004 A 
HETATM   27  C10 CTX  2740       1.129  39.469 237.886  1.00 20.00    -0.022 A 
HETATM   28  C9  CTX  2740       0.468  38.481 237.096  1.00 20.00     0.066 A 
ENDBRANCH   1  23
TORSDOF 9
ENDMDL
MODEL 7
REMARK VINA RESULT:      -6.1      4.484      8.010
REMARK  9 active torsions:
REMARK  status: ('A' for Active; 'I' for Inactive)
REMARK    1  A    between atoms: C20_25  and  CA_1 
REMARK    2  A    between atoms: C1_6  and  OL_3 
REMARK    3  A    between atoms: CA1_4  and  OL_3 
REMARK    4  A    between atoms: CA1_4  and  CB1_5 
REMARK    5  A    between atoms: CB1_5  and  NI_26 
REMARK    6  A    between atoms: C4_11  and  C7_12 
REMARK    7  A    between atoms: C20_25  and  C7_12 
REMARK    8  A    between atoms: C7_12  and  C8_13 
REMARK    9  A    between atoms: C18_23  and  C20_25 
ROOT
HETATM    1  C7  CTX  2740      -2.432  37.943 231.206  1.00 20.00    -0.013 C 
ENDROOT
BRANCH   1   2
HETATM    2  C20 CTX  2740      -3.607  37.013 231.277  1.00 20.00    -0.037 C 
BRANCH   2   3
HETATM    3  C18 CTX  2740      -4.343  36.785 232.619  1.00 20.00    -0.029 A 
HETATM    4  C17 CTX  2740      -4.589  35.454 233.098  1.00 20.00     0.012 A 
HETATM    5  C16 CTX  2740      -5.262  35.246 234.325  1.00 20.00     0.001 A 
HETATM    6  C15 CTX  2740      -5.694  36.363 235.085  1.00 20.00     0.000 A 
HETATM    7  C14 CTX  2740      -5.455  37.688 234.620  1.00 20.00     0.001 A 
HETATM    8  C19 CTX  2740      -4.783  37.900 233.394  1.00 20.00     0.012 A 
ENDBRANCH   2   3
BRANCH   2   9
HETATM    9  CA  CTX  2740      -4.227  36.173 230.106  1.00 20.00     0.036 C 
HETATM   10  CB  CTX  2740      -5.678  36.524 229.748  1.00 20.00     0.010 C 
ENDBRANCH   2   9
ENDBRANCH   1   2
BRANCH   1  11
HETATM   11  C4  CTX  2740      -2.236  39.269 230.322  1.00 20.00    -0.028 A 
HETATM   12  C3  CTX  2740      -3.402  39.952 229.778  1.00 20.00     0.014 A 
HETATM   13  C2  CTX  2740      -3.286  41.142 229.036  1.00 20.00     0.033 A 
HETATM   14  C1  CTX  2740      -1.972  41.732 228.794  1.00 20.00     0.050 A 
HETATM   15  C6  CTX  2740      -0.791  41.063 229.317  1.00 20.00     0.092 A 
HETATM   16  C5  CTX  2740      -0.940  39.850 230.069  1.00 20.00    -0.008 A 
BRANCH  14  17
HETATM   17  OL  CTX  2740      -1.736  42.923 228.097  1.00 20.00    -0.353 OA
BRANCH  17  18
HETATM   18  CA1 CTX  2740      -0.493  43.272 227.382  1.00 20.00     0.205 C 
BRANCH  18  19
HETATM   19  CB1 CTX  2740       0.225  44.452 228.041  1.00 20.00     0.297 C 
BRANCH  19  20
HETATM   20  NI  CTX  2740       1.760  44.277 227.972  1.00 20.00     0.082 N 
HETATM   21  C21 CTX  2740       2.473  44.705 229.203  1.00 20.00     0.309 C 
HETATM   22  C22 CTX  2740       2.166  42.872 227.612  1.00 20.00     0.309 C 
ENDBRANCH  19  20
ENDBRANCH  18  19
ENDBRANCH  17  18
ENDBRANCH  14  17
ENDBRANCH   1  11
BRANCH   1  23
HETATM   23  C8  CTX  2740      -1.184  37.728 232.055  1.00 20.00    -0.043 A 
HETATM   24  C13 CTX  2740      -1.096  38.272 233.398  1.00 20.00     0.008 A 
HETATM   25  C12 CTX  2740       0.047  38.089 234.183  1.00 20.00     0.000 A 
HETATM   26  C11 CTX  2740       1.159  37.355 233.666  1.00 20.00    -0.004 A 
HETATM   27  C10 CTX  2740       1.113  36.805 232.354  1.00 20.00    -0.022 A 
HETATM   28  C9  CTX  2740      -0.046  36.985 231.540  1.00 20.00     0.066 A 
ENDBRANCH   1  23
TORSDOF 9
ENDMDL
MODEL 8
REMARK VINA RESULT:      -6.1      2.161      3.983
REMARK  9 active torsions:
REMARK  status: ('A' for Active; 'I' for Inactive)
REMARK    1  A    between atoms: C20_25  and  CA_1 
REMARK    2  A    between atoms: C1_6  and  OL_3 
REMARK    3  A    between atoms: CA1_4  and  OL_3 
REMARK    4  A    between atoms: CA1_4  and  CB1_5 
REMARK    5  A    between atoms: CB1_5  and  NI_26 
REMARK    6  A    between atoms: C4_11  and  C7_12 
REMARK    7  A    between atoms: C20_25  and  C7_12 
REMARK    8  A    between atoms: C7_12  and  C8_13 
REMARK    9  A    between atoms: C18_23  and  C20_25 
ROOT
HETATM    1  C7  CTX  2740       0.693  36.021 234.740  1.00 20.00    -0.013 C 
ENDROOT
BRANCH   1   2
HETATM    2  C20 CTX  2740       1.010  34.580 235.010  1.00 20.00    -0.037 C 
BRANCH   2   3
HETATM    3  C18 CTX  2740       1.553  34.146 236.393  1.00 20.00    -0.029 A 
HETATM    4  C17 CTX  2740       2.934  34.349 236.730  1.00 20.00     0.012 A 
HETATM    5  C16 CTX  2740       3.430  33.952 237.994  1.00 20.00     0.001 A 
HETATM    6  C15 CTX  2740       2.553  33.351 238.933  1.00 20.00     0.000 A 
HETATM    7  C14 CTX  2740       1.181  33.145 238.610  1.00 20.00     0.001 A 
HETATM    8  C19 CTX  2740       0.682  33.540 237.347  1.00 20.00     0.012 A 
ENDBRANCH   2   3
BRANCH   2   9
HETATM    9  CA  CTX  2740       0.872  33.373 234.018  1.00 20.00     0.036 C 
HETATM   10  CB  CTX  2740      -0.554  33.094 233.522  1.00 20.00     0.010 C 
ENDBRANCH   2   9
ENDBRANCH   1   2
BRANCH   1  11
HETATM   11  C4  CTX  2740       0.160  36.709 233.391  1.00 20.00    -0.028 A 
HETATM   12  C3  CTX  2740      -1.012  37.572 233.436  1.00 20.00     0.014 A 
HETATM   13  C2  CTX  2740      -1.491  38.235 232.290  1.00 20.00     0.033 A 
HETATM   14  C1  CTX  2740      -0.808  38.074 231.010  1.00 20.00     0.050 A 
HETATM   15  C6  CTX  2740       0.358  37.209 230.935  1.00 20.00     0.092 A 
HETATM   16  C5  CTX  2740       0.823  36.545 232.120  1.00 20.00    -0.008 A 
BRANCH  14  17
HETATM   17  OL  CTX  2740      -1.174  38.703 229.814  1.00 20.00    -0.353 OA
BRANCH  17  18
HETATM   18  CA1 CTX  2740      -1.994  39.925 229.698  1.00 20.00     0.205 C 
BRANCH  18  19
HETATM   19  CB1 CTX  2740      -1.173  41.184 229.981  1.00 20.00     0.297 C 
BRANCH  19  20
HETATM   20  NI  CTX  2740      -1.658  42.370 229.114  1.00 20.00     0.082 N 
HETATM   21  C21 CTX  2740      -0.567  43.090 228.409  1.00 20.00     0.309 C 
HETATM   22  C22 CTX  2740      -2.722  41.967 228.128  1.00 20.00     0.309 C 
ENDBRANCH  19  20
ENDBRANCH  18  19
ENDBRANCH  17  18
ENDBRANCH  14  17
ENDBRANCH   1  11
BRANCH   1  23
HETATM   23  C8  CTX  2740       0.838  37.092 235.816  1.00 20.00    -0.043 A 
HETATM   24  C13 CTX  2740       1.938  38.037 235.778  1.00 20.00     0.008 A 
HETATM   25  C12 CTX  2740       2.086  39.019 236.764  1.00 20.00     0.000 A 
HETATM   26  C11 CTX  2740       1.144  39.103 237.836  1.00 20.00    -0.004 A 
HETATM   27  C10 CTX  2740       0.051  38.194 237.908  1.00 20.00    -0.022 A 
HETATM   28  C9  CTX  2740      -0.113  37.187 236.910  1.00 20.00     0.066 A 
ENDBRANCH   1  23
TORSDOF 9
ENDMDL
MODEL 9
REMARK VINA RESULT:      -6.1      1.415      3.371
REMARK  9 active torsions:
REMARK  status: ('A' for Active; 'I' for Inactive)
REMARK    1  A    between atoms: C20_25  and  CA_1 
REMARK    2  A    between atoms: C1_6  and  OL_3 
REMARK    3  A    between atoms: CA1_4  and  OL_3 
REMARK    4  A    between atoms: CA1_4  and  CB1_5 
REMARK    5  A    between atoms: CB1_5  and  NI_26 
REMARK    6  A    between atoms: C4_11  and  C7_12 
REMARK    7  A    between atoms: C20_25  and  C7_12 
REMARK    8  A    between atoms: C7_12  and  C8_13 
REMARK    9  A    between atoms: C18_23  and  C20_25 
ROOT
HETATM    1  C7  CTX  2740       0.784  34.977 235.778  1.00 20.00    -0.013 C 
ENDROOT
BRANCH   1   2
HETATM    2  C20 CTX  2740       0.337  35.777 236.966  1.00 20.00    -0.037 C 
BRANCH   2   3
HETATM    3  C18 CTX  2740       1.147  37.014 237.424  1.00 20.00    -0.029 A 
HETATM    4  C17 CTX  2740       0.480  38.152 237.992  1.00 20.00     0.012 A 
HETATM    5  C16 CTX  2740       1.221  39.283 238.410  1.00 20.00     0.001 A 
HETATM    6  C15 CTX  2740       2.633  39.288 238.267  1.00 20.00     0.000 A 
HETATM    7  C14 CTX  2740       3.304  38.164 237.705  1.00 20.00     0.001 A 
HETATM    8  C19 CTX  2740       2.567  37.033 237.285  1.00 20.00     0.012 A 
ENDBRANCH   2   3
BRANCH   2   9
HETATM    9  CA  CTX  2740      -0.912  35.511 237.877  1.00 20.00     0.036 C 
HETATM   10  CB  CTX  2740      -2.271  35.628 237.174  1.00 20.00     0.010 C 
ENDBRANCH   2   9
ENDBRANCH   1   2
BRANCH   1  11
HETATM   11  C4  CTX  2740       0.719  35.351 234.218  1.00 20.00    -0.028 A 
HETATM   12  C3  CTX  2740       0.220  34.372 233.262  1.00 20.00     0.014 A 
HETATM   13  C2  CTX  2740       0.100  34.667 231.892  1.00 20.00     0.033 A 
HETATM   14  C1  CTX  2740       0.474  35.985 231.389  1.00 20.00     0.050 A 
HETATM   15  C6  CTX  2740       0.985  36.978 232.321  1.00 20.00     0.092 A 
HETATM   16  C5  CTX  2740       1.097  36.648 233.713  1.00 20.00    -0.008 A 
BRANCH  14  17
HETATM   17  OL  CTX  2740       0.372  36.401 230.056  1.00 20.00    -0.353 OA
BRANCH  17  18
HETATM   18  CA1 CTX  2740      -0.791  37.082 229.452  1.00 20.00     0.205 C 
BRANCH  18  19
HETATM   19  CB1 CTX  2740      -0.727  38.597 229.659  1.00 20.00     0.297 C 
BRANCH  19  20
HETATM   20  NI  CTX  2740      -2.012  39.118 230.346  1.00 20.00     0.082 N 
HETATM   21  C21 CTX  2740      -1.886  39.283 231.816  1.00 20.00     0.309 C 
HETATM   22  C22 CTX  2740      -2.517  40.397 229.732  1.00 20.00     0.309 C 
ENDBRANCH  19  20
ENDBRANCH  18  19
ENDBRANCH  17  18
ENDBRANCH  14  17
ENDBRANCH   1  11
BRANCH   1  23
HETATM   23  C8  CTX  2740       1.424  33.602 235.930  1.00 20.00    -0.043 A 
HETATM   24  C13 CTX  2740       0.604  32.414 236.085  1.00 20.00     0.008 A 
HETATM   25  C12 CTX  2740       1.179  31.148 236.233  1.00 20.00     0.000 A 
HETATM   26  C11 CTX  2740       2.602  31.005 236.235  1.00 20.00    -0.004 A 
HETATM   27  C10 CTX  2740       3.441  32.145 236.084  1.00 20.00    -0.022 A 
HETATM   28  C9  CTX  2740       2.868  33.444 235.933  1.00 20.00     0.066 A 
ENDBRANCH   1  23
TORSDOF 9
ENDMDL
