MODEL 1
REMARK VINA RESULT:      -6.8      0.000      0.000
REMARK  5 active torsions:
REMARK  status: ('A' for Active; 'I' for Inactive)
REMARK    1  A    between atoms: C1_1  and  C21_25 
REMARK    2  A    between atoms: C13_15  and  N1_14 
REMARK    3  A    between atoms: C13_15  and  C14_16 
REMARK    4  A    between atoms: C14_16  and  C15_17 
REMARK    5  A    between atoms: C15_17  and  N2_18 
ROOT
HETATM    1  C1  TFP  7194      -0.250  37.568 233.918  1.00 20.00     0.050 A 
HETATM    2  C2  TFP  7194      -1.252  37.137 234.738  1.00 20.00     0.017 A 
HETATM    3  C3  TFP  7194      -2.532  37.067 234.284  1.00 20.00     0.022 A 
HETATM    4  C4  TFP  7194      -2.813  37.445 232.969  1.00 20.00     0.032 A 
HETATM    5  C5  TFP  7194      -1.779  37.888 232.136  1.00 20.00     0.053 A 
HETATM    6  C6  TFP  7194      -0.483  37.943 232.636  1.00 20.00     0.047 A 
HETATM    7  S   TFP  7194      -4.401  37.374 232.420  1.00 20.00    -0.086 SA
HETATM    8  C7  TFP  7194      -4.185  37.175 230.707  1.00 20.00     0.032 A 
HETATM    9  C8  TFP  7194      -5.193  36.549 229.966  1.00 20.00     0.021 A 
HETATM   10  C9  TFP  7194      -5.049  36.426 228.605  1.00 20.00     0.002 A 
HETATM   11  C10 TFP  7194      -3.932  36.907 227.959  1.00 20.00     0.002 A 
HETATM   12  C11 TFP  7194      -2.924  37.523 228.655  1.00 20.00     0.031 A 
HETATM   13  C12 TFP  7194      -3.037  37.664 230.046  1.00 20.00     0.052 A 
HETATM   14  N1  TFP  7194      -2.039  38.280 230.817  1.00 20.00    -0.345 N 
ENDROOT
BRANCH  14  15
HETATM   15  C13 TFP  7194      -1.069  39.075 230.103  1.00 20.00     0.131 C 
BRANCH  15  16
HETATM   16  C14 TFP  7194      -1.615  40.461 230.274  1.00 20.00     0.050 C 
BRANCH  16  17
HETATM   17  C15 TFP  7194      -1.206  41.359 229.146  1.00 20.00     0.274 C 
BRANCH  17  18
HETATM   18  N2  TFP  7194       0.077  41.990 229.424  1.00 20.00     0.091 N 
HETATM   19  C16 TFP  7194       0.896  41.754 228.240  1.00 20.00     0.302 C 
HETATM   20  C17 TFP  7194       2.045  42.740 228.135  1.00 20.00     0.302 C 
HETATM   21  N3  TFP  7194       1.577  44.122 228.022  1.00 20.00     0.087 N 
HETATM   22  C18 TFP  7194       0.156  44.222 228.357  1.00 20.00     0.302 C 
HETATM   23  C20 TFP  7194       2.301  44.897 229.031  1.00 20.00     0.310 C 
HETATM   24  C19 TFP  7194      -0.195  43.417 229.596  1.00 20.00     0.302 C 
ENDBRANCH  17  18
ENDBRANCH  16  17
ENDBRANCH  15  16
ENDBRANCH  14  15
BRANCH   1  25
HETATM   25  C21 TFP  7194       1.186  37.646 234.408  1.00 20.00     0.417 C 
HETATM   26  F1  TFP  7194       1.595  36.594 234.967  1.00 20.00    -0.166 F 
HETATM   27  F2  TFP  7194       1.510  38.554 235.227  1.00 20.00    -0.166 F 
HETATM   28  F3  TFP  7194       2.086  37.846 233.538  1.00 20.00    -0.166 F 
ENDBRANCH   1  25
TORSDOF 5
ENDMDL
MODEL 2
REMARK VINA RESULT:      -6.6      5.827      9.555
REMARK  5 active torsions:
REMARK  status: ('A' for Active; 'I' for Inactive)
REMARK    1  A    between atoms: C1_1  and  C21_25 
REMARK    2  A    between atoms: C13_15  and  N1_14 
REMARK    3  A    between atoms: C13_15  and  C14_16 
REMARK    4  A    between atoms: C14_16  and  C15_17 
REMARK    5  A    between atoms: C15_17  and  N2_18 
ROOT
HETATM    1  C1  TFP  7194       0.381  36.758 233.463  1.00 20.00     0.050 A 
HETATM    2  C2  TFP  7194      -0.537  37.729 233.740  1.00 20.00     0.017 A 
HETATM    3  C3  TFP  7194      -0.642  38.243 234.995  1.00 20.00     0.022 A 
HETATM    4  C4  TFP  7194       0.198  37.764 236.002  1.00 20.00     0.032 A 
HETATM    5  C5  TFP  7194       1.137  36.767 235.710  1.00 20.00     0.053 A 
HETATM    6  C6  TFP  7194       1.215  36.268 234.414  1.00 20.00     0.047 A 
HETATM    7  S   TFP  7194       0.051  38.389 237.555  1.00 20.00    -0.086 SA
HETATM    8  C7  TFP  7194       1.642  38.129 238.205  1.00 20.00     0.032 A 
HETATM    9  C8  TFP  7194       2.098  38.960 239.234  1.00 20.00     0.021 A 
HETATM   10  C9  TFP  7194       3.337  38.734 239.782  1.00 20.00     0.002 A 
HETATM   11  C10 TFP  7194       4.138  37.706 239.337  1.00 20.00     0.002 A 
HETATM   12  C11 TFP  7194       3.724  36.874 238.329  1.00 20.00     0.031 A 
HETATM   13  C12 TFP  7194       2.464  37.077 237.745  1.00 20.00     0.052 A 
HETATM   14  N1  TFP  7194       1.984  36.265 236.706  1.00 20.00    -0.345 N 
ENDROOT
BRANCH  14  15
HETATM   15  C13 TFP  7194       2.663  35.009 236.502  1.00 20.00     0.131 C 
BRANCH  15  16
HETATM   16  C14 TFP  7194       1.784  34.053 237.252  1.00 20.00     0.050 C 
BRANCH  16  17
HETATM   17  C15 TFP  7194       1.776  32.695 236.619  1.00 20.00     0.274 C 
BRANCH  17  18
HETATM   18  N2  TFP  7194       1.421  32.782 235.209  1.00 20.00     0.091 N 
HETATM   19  C16 TFP  7194       1.957  31.573 234.593  1.00 20.00     0.302 C 
HETATM   20  C17 TFP  7194       1.268  31.248 233.281  1.00 20.00     0.302 C 
HETATM   21  N3  TFP  7194      -0.164  31.001 233.455  1.00 20.00     0.087 N 
HETATM   22  C18 TFP  7194      -0.613  31.439 234.777  1.00 20.00     0.302 C 
HETATM   23  C20 TFP  7194      -0.860  31.840 232.477  1.00 20.00     0.310 C 
HETATM   24  C19 TFP  7194      -0.041  32.795 235.152  1.00 20.00     0.302 C 
ENDBRANCH  17  18
ENDBRANCH  16  17
ENDBRANCH  15  16
ENDBRANCH  14  15
BRANCH   1  25
HETATM   25  C21 TFP  7194       0.515  36.179 232.066  1.00 20.00     0.417 C 
HETATM   26  F1  TFP  7194       0.676  34.931 232.041  1.00 20.00    -0.166 F 
HETATM   27  F2  TFP  7194       1.435  36.605 231.308  1.00 20.00    -0.166 F 
HETATM   28  F3  TFP  7194      -0.466  36.332 231.277  1.00 20.00    -0.166 F 
ENDBRANCH   1  25
TORSDOF 5
ENDMDL
MODEL 3
REMARK VINA RESULT:      -6.6      3.549      5.434
REMARK  5 active torsions:
REMARK  status: ('A' for Active; 'I' for Inactive)
REMARK    1  A    between atoms: C1_1  and  C21_25 
REMARK    2  A    between atoms: C13_15  and  N1_14 
REMARK    3  A    between atoms: C13_15  and  C14_16 
REMARK    4  A    between atoms: C14_16  and  C15_17 
REMARK    5  A    between atoms: C15_17  and  N2_18 
ROOT
HETATM    1  C1  TFP  7194       0.853  36.534 233.439  1.00 20.00     0.050 A 
HETATM    2  C2  TFP  7194       0.668  35.239 233.828  1.00 20.00     0.017 A 
HETATM    3  C3  TFP  7194       0.168  34.322 232.958  1.00 20.00     0.022 A 
HETATM    4  C4  TFP  7194      -0.160  34.719 231.660  1.00 20.00     0.032 A 
HETATM    5  C5  TFP  7194       0.031  36.050 231.270  1.00 20.00     0.053 A 
HETATM    6  C6  TFP  7194       0.548  36.958 232.187  1.00 20.00     0.047 A 
HETATM    7  S   TFP  7194      -0.796  33.585 230.595  1.00 20.00    -0.086 SA
HETATM    8  C7  TFP  7194      -0.342  34.240 229.050  1.00 20.00     0.032 A 
HETATM    9  C8  TFP  7194      -0.198  33.373 227.962  1.00 20.00     0.021 A 
HETATM   10  C9  TFP  7194       0.119  33.889 226.729  1.00 20.00     0.002 A 
HETATM   11  C10 TFP  7194       0.297  35.242 226.545  1.00 20.00     0.002 A 
HETATM   12  C11 TFP  7194       0.167  36.120 227.590  1.00 20.00     0.031 A 
HETATM   13  C12 TFP  7194      -0.155  35.627 228.864  1.00 20.00     0.052 A 
HETATM   14  N1  TFP  7194      -0.298  36.472 229.975  1.00 20.00    -0.345 N 
ENDROOT
BRANCH  14  15
HETATM   15  C13 TFP  7194      -0.457  37.879 229.701  1.00 20.00     0.131 C 
BRANCH  15  16
HETATM   16  C14 TFP  7194      -1.912  38.093 229.997  1.00 20.00     0.050 C 
BRANCH  16  17
HETATM   17  C15 TFP  7194      -2.117  39.176 231.012  1.00 20.00     0.274 C 
BRANCH  17  18
HETATM   18  N2  TFP  7194      -3.288  38.900 231.834  1.00 20.00     0.091 N 
HETATM   19  C16 TFP  7194      -3.810  37.623 231.359  1.00 20.00     0.302 C 
HETATM   20  C17 TFP  7194      -4.689  36.946 232.394  1.00 20.00     0.302 C 
HETATM   21  N3  TFP  7194      -3.958  36.640 233.625  1.00 20.00     0.087 N 
HETATM   22  C18 TFP  7194      -2.676  37.343 233.659  1.00 20.00     0.302 C 
HETATM   23  C20 TFP  7194      -4.756  37.169 234.733  1.00 20.00     0.310 C 
HETATM   24  C19 TFP  7194      -2.807  38.789 233.211  1.00 20.00     0.302 C 
ENDBRANCH  17  18
ENDBRANCH  16  17
ENDBRANCH  15  16
ENDBRANCH  14  15
BRANCH   1  25
HETATM   25  C21 TFP  7194       1.418  37.569 234.397  1.00 20.00     0.417 C 
HETATM   26  F1  TFP  7194       2.370  38.241 233.923  1.00 20.00    -0.166 F 
HETATM   27  F2  TFP  7194       1.861  37.191 235.520  1.00 20.00    -0.166 F 
HETATM   28  F3  TFP  7194       0.631  38.478 234.800  1.00 20.00    -0.166 F 
ENDBRANCH   1  25
TORSDOF 5
ENDMDL
MODEL 4
REMARK VINA RESULT:      -6.6      5.345      7.951
REMARK  5 active torsions:
REMARK  status: ('A' for Active; 'I' for Inactive)
REMARK    1  A    between atoms: C1_1  and  C21_25 
REMARK    2  A    between atoms: C13_15  and  N1_14 
REMARK    3  A    between atoms: C13_15  and  C14_16 
REMARK    4  A    between atoms: C14_16  and  C15_17 
REMARK    5  A    between atoms: C15_17  and  N2_18 
ROOT
HETATM    1  C1  TFP  7194       1.310  33.093 235.055  1.00 20.00     0.050 A 
HETATM    2  C2  TFP  7194       2.415  32.763 235.786  1.00 20.00     0.017 A 
HETATM    3  C3  TFP  7194       3.092  33.716 236.482  1.00 20.00     0.022 A 
HETATM    4  C4  TFP  7194       2.648  35.039 236.438  1.00 20.00     0.032 A 
HETATM    5  C5  TFP  7194       1.515  35.369 235.684  1.00 20.00     0.053 A 
HETATM    6  C6  TFP  7194       0.848  34.367 234.989  1.00 20.00     0.047 A 
HETATM    7  S   TFP  7194       3.500  36.215 237.285  1.00 20.00    -0.086 SA
HETATM    8  C7  TFP  7194       2.276  37.413 237.578  1.00 20.00     0.032 A 
HETATM    9  C8  TFP  7194       2.412  38.266 238.678  1.00 20.00     0.021 A 
HETATM   10  C9  TFP  7194       1.470  39.243 238.891  1.00 20.00     0.002 A 
HETATM   11  C10 TFP  7194       0.396  39.398 238.044  1.00 20.00     0.002 A 
HETATM   12  C11 TFP  7194       0.230  38.577 236.958  1.00 20.00     0.031 A 
HETATM   13  C12 TFP  7194       1.172  37.567 236.710  1.00 20.00     0.052 A 
HETATM   14  N1  TFP  7194       1.057  36.691 235.620  1.00 20.00    -0.345 N 
ENDROOT
BRANCH  14  15
HETATM   15  C13 TFP  7194       0.149  37.083 234.569  1.00 20.00     0.131 C 
BRANCH  15  16
HETATM   16  C14 TFP  7194       1.073  37.231 233.397  1.00 20.00     0.050 C 
BRANCH  16  17
HETATM   17  C15 TFP  7194       0.347  37.068 232.096  1.00 20.00     0.274 C 
BRANCH  17  18
HETATM   18  N2  TFP  7194       0.692  35.802 231.465  1.00 20.00     0.091 N 
HETATM   19  C16 TFP  7194      -0.478  34.947 231.634  1.00 20.00     0.302 C 
HETATM   20  C17 TFP  7194      -0.502  33.808 230.630  1.00 20.00     0.302 C 
HETATM   21  N3  TFP  7194      -0.561  34.290 229.250  1.00 20.00     0.087 N 
HETATM   22  C18 TFP  7194      -0.263  35.722 229.183  1.00 20.00     0.302 C 
HETATM   23  C20 TFP  7194       0.505  33.606 228.516  1.00 20.00     0.310 C 
HETATM   24  C19 TFP  7194       0.925  36.097 230.051  1.00 20.00     0.302 C 
ENDBRANCH  17  18
ENDBRANCH  16  17
ENDBRANCH  15  16
ENDBRANCH  14  15
BRANCH   1  25
HETATM   25  C21 TFP  7194       0.540  32.040 234.278  1.00 20.00     0.417 C 
HETATM   26  F1  TFP  7194      -0.696  32.266 234.197  1.00 20.00    -0.166 F 
HETATM   27  F2  TFP  7194       0.590  30.835 234.658  1.00 20.00    -0.166 F 
HETATM   28  F3  TFP  7194       0.855  31.869 233.062  1.00 20.00    -0.166 F 
ENDBRANCH   1  25
TORSDOF 5
ENDMDL
MODEL 5
REMARK VINA RESULT:      -6.5      4.141      6.607
REMARK  5 active torsions:
REMARK  status: ('A' for Active; 'I' for Inactive)
REMARK    1  A    between atoms: C1_1  and  C21_25 
REMARK    2  A    between atoms: C13_15  and  N1_14 
REMARK    3  A    between atoms: C13_15  and  C14_16 
REMARK    4  A    between atoms: C14_16  and  C15_17 
REMARK    5  A    between atoms: C15_17  and  N2_18 
ROOT
HETATM    1  C1  TFP  7194       1.072  38.132 236.361  1.00 20.00     0.050 A 
HETATM    2  C2  TFP  7194       1.625  36.894 236.514  1.00 20.00     0.017 A 
HETATM    3  C3  TFP  7194       1.455  35.939 235.561  1.00 20.00     0.022 A 
HETATM    4  C4  TFP  7194       0.703  36.236 234.422  1.00 20.00     0.032 A 
HETATM    5  C5  TFP  7194       0.138  37.508 234.274  1.00 20.00     0.053 A 
HETATM    6  C6  TFP  7194       0.336  38.459 235.269  1.00 20.00     0.047 A 
HETATM    7  S   TFP  7194       0.480  35.045 233.257  1.00 20.00    -0.086 SA
HETATM    8  C7  TFP  7194       0.213  35.987 231.820  1.00 20.00     0.032 A 
HETATM    9  C8  TFP  7194       0.518  35.425 230.576  1.00 20.00     0.021 A 
HETATM   10  C9  TFP  7194       0.269  36.147 229.434  1.00 20.00     0.002 A 
HETATM   11  C10 TFP  7194      -0.273  37.411 229.492  1.00 20.00     0.002 A 
HETATM   12  C11 TFP  7194      -0.581  37.993 230.694  1.00 20.00     0.031 A 
HETATM   13  C12 TFP  7194      -0.339  37.285 231.881  1.00 20.00     0.052 A 
HETATM   14  N1  TFP  7194      -0.627  37.826 233.144  1.00 20.00    -0.345 N 
ENDROOT
BRANCH  14  15
HETATM   15  C13 TFP  7194      -1.502  38.973 233.172  1.00 20.00     0.131 C 
BRANCH  15  16
HETATM   16  C14 TFP  7194      -2.768  38.387 233.721  1.00 20.00     0.050 C 
BRANCH  16  17
HETATM   17  C15 TFP  7194      -3.878  38.426 232.714  1.00 20.00     0.274 C 
BRANCH  17  18
HETATM   18  N2  TFP  7194      -4.806  37.323 232.923  1.00 20.00     0.091 N 
HETATM   19  C16 TFP  7194      -3.981  36.180 233.299  1.00 20.00     0.302 C 
HETATM   20  C17 TFP  7194      -4.779  35.116 234.031  1.00 20.00     0.302 C 
HETATM   21  N3  TFP  7194      -5.351  35.618 235.281  1.00 20.00     0.087 N 
HETATM   22  C18 TFP  7194      -5.275  37.078 235.341  1.00 20.00     0.302 C 
HETATM   23  C20 TFP  7194      -6.773  35.272 235.263  1.00 20.00     0.310 C 
HETATM   24  C19 TFP  7194      -5.678  37.724 234.027  1.00 20.00     0.302 C 
ENDBRANCH  17  18
ENDBRANCH  16  17
ENDBRANCH  15  16
ENDBRANCH  14  15
BRANCH   1  25
HETATM   25  C21 TFP  7194       1.259  39.212 237.412  1.00 20.00     0.417 C 
HETATM   26  F1  TFP  7194       2.463  39.446 237.698  1.00 20.00    -0.166 F 
HETATM   27  F2  TFP  7194       0.715  39.069 238.546  1.00 20.00    -0.166 F 
HETATM   28  F3  TFP  7194       0.825  40.371 237.139  1.00 20.00    -0.166 F 
ENDBRANCH   1  25
TORSDOF 5
ENDMDL
MODEL 6
REMARK VINA RESULT:      -6.5      5.761      9.715
REMARK  5 active torsions:
REMARK  status: ('A' for Active; 'I' for Inactive)
REMARK    1  A    between atoms: C1_1  and  C21_25 
REMARK    2  A    between atoms: C13_15  and  N1_14 
REMARK    3  A    between atoms: C13_15  and  C14_16 
REMARK    4  A    between atoms: C14_16  and  C15_17 
REMARK    5  A    between atoms: C15_17  and  N2_18 
ROOT
HETATM    1  C1  TFP  7194       0.358  36.833 233.386  1.00 20.00     0.050 A 
HETATM    2  C2  TFP  7194      -0.518  37.846 233.651  1.00 20.00     0.017 A 
HETATM    3  C3  TFP  7194      -0.608  38.371 234.902  1.00 20.00     0.022 A 
HETATM    4  C4  TFP  7194       0.204  37.861 235.918  1.00 20.00     0.032 A 
HETATM    5  C5  TFP  7194       1.099  36.822 235.637  1.00 20.00     0.053 A 
HETATM    6  C6  TFP  7194       1.164  36.312 234.345  1.00 20.00     0.047 A 
HETATM    7  S   TFP  7194       0.075  38.502 237.466  1.00 20.00    -0.086 SA
HETATM    8  C7  TFP  7194       1.649  38.176 238.128  1.00 20.00     0.032 A 
HETATM    9  C8  TFP  7194       2.134  38.992 239.155  1.00 20.00     0.021 A 
HETATM   10  C9  TFP  7194       3.359  38.714 239.713  1.00 20.00     0.002 A 
HETATM   11  C10 TFP  7194       4.116  37.649 239.279  1.00 20.00     0.002 A 
HETATM   12  C11 TFP  7194       3.672  36.830 238.273  1.00 20.00     0.031 A 
HETATM   13  C12 TFP  7194       2.426  37.085 237.680  1.00 20.00     0.052 A 
HETATM   14  N1  TFP  7194       1.917  36.289 236.642  1.00 20.00    -0.345 N 
ENDROOT
BRANCH  14  15
HETATM   15  C13 TFP  7194       2.540  35.003 236.450  1.00 20.00     0.131 C 
BRANCH  15  16
HETATM   16  C14 TFP  7194       1.731  34.124 237.357  1.00 20.00     0.050 C 
BRANCH  16  17
HETATM   17  C15 TFP  7194       0.712  33.332 236.596  1.00 20.00     0.274 C 
BRANCH  17  18
HETATM   18  N2  TFP  7194      -0.499  33.153 237.384  1.00 20.00     0.091 N 
HETATM   19  C16 TFP  7194      -0.241  33.816 238.658  1.00 20.00     0.302 C 
HETATM   20  C17 TFP  7194      -1.524  34.169 239.388  1.00 20.00     0.302 C 
HETATM   21  N3  TFP  7194      -2.357  35.097 238.622  1.00 20.00     0.087 N 
HETATM   22  C18 TFP  7194      -1.897  35.191 237.236  1.00 20.00     0.302 C 
HETATM   23  C20 TFP  7194      -3.702  34.520 238.579  1.00 20.00     0.310 C 
HETATM   24  C19 TFP  7194      -1.571  33.828 236.651  1.00 20.00     0.302 C 
ENDBRANCH  17  18
ENDBRANCH  16  17
ENDBRANCH  15  16
ENDBRANCH  14  15
BRANCH   1  25
HETATM   25  C21 TFP  7194       0.475  36.241 231.993  1.00 20.00     0.417 C 
HETATM   26  F1  TFP  7194      -0.510  36.484 231.248  1.00 20.00    -0.166 F 
HETATM   27  F2  TFP  7194       0.633  34.992 231.865  1.00 20.00    -0.166 F 
HETATM   28  F3  TFP  7194       1.446  36.629 231.277  1.00 20.00    -0.166 F 
ENDBRANCH   1  25
TORSDOF 5
ENDMDL
MODEL 7
REMARK VINA RESULT:      -6.5      6.331      9.837
REMARK  5 active torsions:
REMARK  status: ('A' for Active; 'I' for Inactive)
REMARK    1  A    between atoms: C1_1  and  C21_25 
REMARK    2  A    between atoms: C13_15  and  N1_14 
REMARK    3  A    between atoms: C13_15  and  C14_16 
REMARK    4  A    between atoms: C14_16  and  C15_17 
REMARK    5  A    between atoms: C15_17  and  N2_18 
ROOT
HETATM    1  C1  TFP  7194       0.678  35.474 234.244  1.00 20.00     0.050 A 
HETATM    2  C2  TFP  7194       0.656  36.716 233.680  1.00 20.00     0.017 A 
HETATM    3  C3  TFP  7194       0.911  37.820 234.432  1.00 20.00     0.022 A 
HETATM    4  C4  TFP  7194       1.191  37.671 235.792  1.00 20.00     0.032 A 
HETATM    5  C5  TFP  7194       1.210  36.392 236.362  1.00 20.00     0.053 A 
HETATM    6  C6  TFP  7194       0.947  35.288 235.560  1.00 20.00     0.047 A 
HETATM    7  S   TFP  7194       1.486  39.041 236.721  1.00 20.00    -0.086 SA
HETATM    8  C7  TFP  7194       2.472  38.406 238.004  1.00 20.00     0.032 A 
HETATM    9  C8  TFP  7194       3.356  39.263 238.666  1.00 20.00     0.021 A 
HETATM   10  C9  TFP  7194       4.107  38.780 239.709  1.00 20.00     0.002 A 
HETATM   11  C10 TFP  7194       4.006  37.467 240.114  1.00 20.00     0.002 A 
HETATM   12  C11 TFP  7194       3.152  36.598 239.485  1.00 20.00     0.031 A 
HETATM   13  C12 TFP  7194       2.370  37.059 238.415  1.00 20.00     0.052 A 
HETATM   14  N1  TFP  7194       1.481  36.220 237.726  1.00 20.00    -0.345 N 
ENDROOT
BRANCH  14  15
HETATM   15  C13 TFP  7194       1.132  34.978 238.372  1.00 20.00     0.131 C 
BRANCH  15  16
HETATM   16  C14 TFP  7194      -0.201  35.304 238.977  1.00 20.00     0.050 C 
BRANCH  16  17
HETATM   17  C15 TFP  7194      -1.111  34.114 238.986  1.00 20.00     0.274 C 
BRANCH  17  18
HETATM   18  N2  TFP  7194      -2.450  34.482 238.547  1.00 20.00     0.091 N 
HETATM   19  C16 TFP  7194      -2.342  35.854 238.062  1.00 20.00     0.302 C 
HETATM   20  C17 TFP  7194      -3.477  36.219 237.123  1.00 20.00     0.302 C 
HETATM   21  N3  TFP  7194      -3.495  35.377 235.926  1.00 20.00     0.087 N 
HETATM   22  C18 TFP  7194      -2.624  34.213 236.092  1.00 20.00     0.302 C 
HETATM   23  C20 TFP  7194      -4.859  34.865 235.790  1.00 20.00     0.310 C 
HETATM   24  C19 TFP  7194      -2.792  33.568 237.457  1.00 20.00     0.302 C 
ENDBRANCH  17  18
ENDBRANCH  16  17
ENDBRANCH  15  16
ENDBRANCH  14  15
BRANCH   1  25
HETATM   25  C21 TFP  7194       0.403  34.231 233.415  1.00 20.00     0.417 C 
HETATM   26  F1  TFP  7194       0.534  34.402 232.175  1.00 20.00    -0.166 F 
HETATM   27  F2  TFP  7194      -0.723  33.662 233.512  1.00 20.00    -0.166 F 
HETATM   28  F3  TFP  7194       1.143  33.222 233.619  1.00 20.00    -0.166 F 
ENDBRANCH   1  25
TORSDOF 5
ENDMDL
MODEL 8
REMARK VINA RESULT:      -6.4      4.468      6.983
REMARK  5 active torsions:
REMARK  status: ('A' for Active; 'I' for Inactive)
REMARK    1  A    between atoms: C1_1  and  C21_25 
REMARK    2  A    between atoms: C13_15  and  N1_14 
REMARK    3  A    between atoms: C13_15  and  C14_16 
REMARK    4  A    between atoms: C14_16  and  C15_17 
REMARK    5  A    between atoms: C15_17  and  N2_18 
ROOT
HETATM    1  C1  TFP  7194      -3.380  36.352 235.741  1.00 20.00     0.050 A 
HETATM    2  C2  TFP  7194      -4.377  37.078 235.154  1.00 20.00     0.017 A 
HETATM    3  C3  TFP  7194      -4.144  37.768 234.006  1.00 20.00     0.022 A 
HETATM    4  C4  TFP  7194      -2.871  37.732 233.433  1.00 20.00     0.032 A 
HETATM    5  C5  TFP  7194      -1.854  36.986 234.042  1.00 20.00     0.053 A 
HETATM    6  C6  TFP  7194      -2.132  36.291 235.213  1.00 20.00     0.047 A 
HETATM    7  S   TFP  7194      -2.584  38.603 232.024  1.00 20.00    -0.086 SA
HETATM    8  C7  TFP  7194      -1.268  37.719 231.310  1.00 20.00     0.032 A 
HETATM    9  C8  TFP  7194      -1.089  37.773 229.924  1.00 20.00     0.021 A 
HETATM   10  C9  TFP  7194      -0.027  37.112 229.357  1.00 20.00     0.002 A 
HETATM   11  C10 TFP  7194       0.864  36.399 230.128  1.00 20.00     0.002 A 
HETATM   12  C11 TFP  7194       0.717  36.323 231.489  1.00 20.00     0.031 A 
HETATM   13  C12 TFP  7194      -0.358  36.985 232.101  1.00 20.00     0.052 A 
HETATM   14  N1  TFP  7194      -0.568  36.942 233.488  1.00 20.00    -0.345 N 
ENDROOT
BRANCH  14  15
HETATM   15  C13 TFP  7194       0.543  36.502 234.297  1.00 20.00     0.131 C 
BRANCH  15  16
HETATM   16  C14 TFP  7194       1.285  37.784 234.532  1.00 20.00     0.050 C 
BRANCH  16  17
HETATM   17  C15 TFP  7194       1.018  38.335 235.899  1.00 20.00     0.274 C 
BRANCH  17  18
HETATM   18  N2  TFP  7194       1.596  37.478 236.926  1.00 20.00     0.091 N 
HETATM   19  C16 TFP  7194       3.033  37.478 236.673  1.00 20.00     0.302 C 
HETATM   20  C17 TFP  7194       3.828  37.073 237.901  1.00 20.00     0.302 C 
HETATM   21  N3  TFP  7194       3.624  37.994 239.019  1.00 20.00     0.087 N 
HETATM   22  C18 TFP  7194       2.479  38.871 238.772  1.00 20.00     0.302 C 
HETATM   23  C20 TFP  7194       3.282  37.176 240.184  1.00 20.00     0.310 C 
HETATM   24  C19 TFP  7194       1.291  38.111 238.209  1.00 20.00     0.302 C 
ENDBRANCH  17  18
ENDBRANCH  16  17
ENDBRANCH  15  16
ENDBRANCH  14  15
BRANCH   1  25
HETATM   25  C21 TFP  7194      -3.626  35.570 237.019  1.00 20.00     0.417 C 
HETATM   26  F1  TFP  7194      -4.743  34.989 237.058  1.00 20.00    -0.166 F 
HETATM   27  F2  TFP  7194      -3.574  36.172 238.130  1.00 20.00    -0.166 F 
HETATM   28  F3  TFP  7194      -2.829  34.620 237.281  1.00 20.00    -0.166 F 
ENDBRANCH   1  25
TORSDOF 5
ENDMDL
MODEL 9
REMARK VINA RESULT:      -6.3      5.467      9.118
REMARK  5 active torsions:
REMARK  status: ('A' for Active; 'I' for Inactive)
REMARK    1  A    between atoms: C1_1  and  C21_25 
REMARK    2  A    between atoms: C13_15  and  N1_14 
REMARK    3  A    between atoms: C13_15  and  C14_16 
REMARK    4  A    between atoms: C14_16  and  C15_17 
REMARK    5  A    between atoms: C15_17  and  N2_18 
ROOT
HETATM    1  C1  TFP  7194       2.791  37.546 238.613  1.00 20.00     0.050 A 
HETATM    2  C2  TFP  7194       2.993  37.357 239.949  1.00 20.00     0.017 A 
HETATM    3  C3  TFP  7194       3.027  36.102 240.472  1.00 20.00     0.022 A 
HETATM    4  C4  TFP  7194       2.849  35.005 239.627  1.00 20.00     0.032 A 
HETATM    5  C5  TFP  7194       2.641  35.207 238.257  1.00 20.00     0.053 A 
HETATM    6  C6  TFP  7194       2.615  36.505 237.760  1.00 20.00     0.047 A 
HETATM    7  S   TFP  7194       2.873  33.457 240.282  1.00 20.00    -0.086 SA
HETATM    8  C7  TFP  7194       3.371  32.493 238.923  1.00 20.00     0.032 A 
HETATM    9  C8  TFP  7194       4.022  31.278 239.156  1.00 20.00     0.021 A 
HETATM   10  C9  TFP  7194       4.380  30.491 238.089  1.00 20.00     0.002 A 
HETATM   11  C10 TFP  7194       4.110  30.877 236.795  1.00 20.00     0.002 A 
HETATM   12  C11 TFP  7194       3.477  32.064 236.530  1.00 20.00     0.031 A 
HETATM   13  C12 TFP  7194       3.098  32.893 237.596  1.00 20.00     0.052 A 
HETATM   14  N1  TFP  7194       2.451  34.122 237.392  1.00 20.00    -0.345 N 
ENDROOT
BRANCH  14  15
HETATM   15  C13 TFP  7194       1.872  34.339 236.089  1.00 20.00     0.131 C 
BRANCH  15  16
HETATM   16  C14 TFP  7194       0.405  34.207 236.373  1.00 20.00     0.050 C 
BRANCH  16  17
HETATM   17  C15 TFP  7194      -0.423  34.530 235.167  1.00 20.00     0.274 C 
BRANCH  17  18
HETATM   18  N2  TFP  7194      -0.331  35.946 234.839  1.00 20.00     0.091 N 
HETATM   19  C16 TFP  7194       0.067  35.999 233.436  1.00 20.00     0.302 C 
HETATM   20  C17 TFP  7194      -0.274  37.333 232.796  1.00 20.00     0.302 C 
HETATM   21  N3  TFP  7194      -1.713  37.599 232.809  1.00 20.00     0.087 N 
HETATM   22  C18 TFP  7194      -2.408  36.675 233.705  1.00 20.00     0.302 C 
HETATM   23  C20 TFP  7194      -1.890  38.940 233.369  1.00 20.00     0.310 C 
HETATM   24  C19 TFP  7194      -1.673  36.500 235.023  1.00 20.00     0.302 C 
ENDBRANCH  17  18
ENDBRANCH  16  17
ENDBRANCH  15  16
ENDBRANCH  14  15
BRANCH   1  25
HETATM   25  C21 TFP  7194       2.758  38.940 238.013  1.00 20.00     0.417 C 
HETATM   26  F1  TFP  7194       3.744  39.657 238.326  1.00 20.00    -0.166 F 
HETATM   27  F2  TFP  7194       1.767  39.690 238.251  1.00 20.00    -0.166 F 
HETATM   28  F3  TFP  7194       2.762  39.029 236.748  1.00 20.00    -0.166 F 
ENDBRANCH   1  25
TORSDOF 5
ENDMDL
