MODEL 1
REMARK VINA RESULT:      -8.0      0.000      0.000
REMARK  4 active torsions:
REMARK  status: ('A' for Active; 'I' for Inactive)
REMARK    1  A    between atoms: C3_4  and  O_21 
REMARK    2  A    between atoms: C17_18  and  C7_8 
REMARK    3  A    between atoms: C10_11  and  C9_10 
REMARK       I    between atoms: C9_10  and  N_20 
REMARK    4  A    between atoms: C17_18  and  C18_19 
ROOT
HETATM    1  C   IMN  4505      -2.149  41.130 229.216  1.00 20.00     0.054 A 
HETATM    2  C1  IMN  4505      -3.510  40.551 229.055  1.00 20.00     0.006 A 
HETATM    3  C2  IMN  4505      -3.934  39.537 229.895  1.00 20.00     0.051 A 
HETATM    4  C3  IMN  4505      -3.107  39.035 230.890  1.00 20.00     0.069 A 
HETATM    5  C4  IMN  4505      -1.833  39.565 231.055  1.00 20.00     0.039 A 
HETATM    6  C5  IMN  4505      -1.356  40.595 230.234  1.00 20.00     0.034 A 
HETATM    7  C7  IMN  4505      -4.183  41.250 227.925  1.00 20.00     0.006 A 
HETATM    8  C8  IMN  4505      -3.169  42.234 227.468  1.00 20.00     0.028 A 
HETATM    9  C9  IMN  4505      -0.904  42.694 227.831  1.00 20.00     0.263 C 
HETATM   10  C16 IMN  4505      -3.284  43.226 226.342  1.00 20.00     0.070 C 
HETATM   11  N   IMN  4505      -2.077  42.081 228.252  1.00 20.00    -0.281 N 
HETATM   12  O1  IMN  4505      -0.769  42.816 226.635  1.00 20.00    -0.267 OA
ENDROOT
BRANCH   9  13
HETATM   13  C10 IMN  4505       0.358  43.092 228.556  1.00 20.00     0.033 A 
HETATM   14  C15 IMN  4505       0.500  43.870 229.704  1.00 20.00     0.018 A 
HETATM   15  C14 IMN  4505       1.775  44.110 230.221  1.00 20.00     0.025 A 
HETATM   16  C13 IMN  4505       2.901  43.578 229.608  1.00 20.00     0.034 A 
HETATM   17  C12 IMN  4505       2.762  42.802 228.471  1.00 20.00     0.025 A 
HETATM   18 CL   IMN  4505       4.535  43.887 230.277  1.00 20.00    -0.084 Cl
HETATM   19  C11 IMN  4505       1.501  42.566 227.955  1.00 20.00     0.018 A 
ENDBRANCH   9  13
BRANCH   7  20
HETATM   20  C17 IMN  4505      -5.590  40.877 227.487  1.00 20.00     0.098 C 
BRANCH  20  21
HETATM   21  C18 IMN  4505      -6.159  41.010 226.074  1.00 20.00     0.199 C 
HETATM   22  O2  IMN  4505      -5.623  40.684 225.022  1.00 20.00    -0.644 OA
HETATM   23  O3  IMN  4505      -7.363  41.579 225.982  1.00 20.00    -0.644 OA
ENDBRANCH  20  21
ENDBRANCH   7  20
BRANCH   4  24
HETATM   24  O   IMN  4505      -3.586  38.025 231.700  1.00 20.00    -0.356 OA
HETATM   25  C6  IMN  4505      -4.026  38.223 233.045  1.00 20.00     0.210 C 
ENDBRANCH   4  24
TORSDOF 4
ENDMDL
MODEL 2
REMARK VINA RESULT:      -7.5      2.558      5.405
REMARK  4 active torsions:
REMARK  status: ('A' for Active; 'I' for Inactive)
REMARK    1  A    between atoms: C3_4  and  O_21 
REMARK    2  A    between atoms: C17_18  and  C7_8 
REMARK    3  A    between atoms: C10_11  and  C9_10 
REMARK       I    between atoms: C9_10  and  N_20 
REMARK    4  A    between atoms: C17_18  and  C18_19 
ROOT
HETATM    1  C   IMN  4505      -1.495  41.752 228.874  1.00 20.00     0.054 A 
HETATM    2  C1  IMN  4505      -1.799  42.734 227.798  1.00 20.00     0.006 A 
HETATM    3  C2  IMN  4505      -0.898  43.744 227.508  1.00 20.00     0.051 A 
HETATM    4  C3  IMN  4505       0.290  43.871 228.213  1.00 20.00     0.069 A 
HETATM    5  C4  IMN  4505       0.590  42.963 229.222  1.00 20.00     0.039 A 
HETATM    6  C5  IMN  4505      -0.285  41.919 229.551  1.00 20.00     0.034 A 
HETATM    7  C7  IMN  4505      -3.122  42.386 227.210  1.00 20.00     0.006 A 
HETATM    8  C8  IMN  4505      -3.543  41.187 227.978  1.00 20.00     0.028 A 
HETATM    9  C9  IMN  4505      -2.867  40.022 229.891  1.00 20.00     0.263 C 
HETATM   10  C16 IMN  4505      -4.810  40.390 227.830  1.00 20.00     0.070 C 
HETATM   11  N   IMN  4505      -2.567  40.922 228.877  1.00 20.00    -0.281 N 
HETATM   12  O1  IMN  4505      -4.025  39.979 230.237  1.00 20.00    -0.267 OA
ENDROOT
BRANCH   9  13
HETATM   13  C10 IMN  4505      -2.004  39.189 230.807  1.00 20.00     0.033 A 
HETATM   14  C15 IMN  4505      -1.970  39.168 232.200  1.00 20.00     0.018 A 
HETATM   15  C14 IMN  4505      -1.093  38.302 232.856  1.00 20.00     0.025 A 
HETATM   16  C13 IMN  4505      -0.258  37.459 232.137  1.00 20.00     0.034 A 
HETATM   17  C12 IMN  4505      -0.292  37.474 230.754  1.00 20.00     0.025 A 
HETATM   18 CL   IMN  4505       0.865  36.348 232.984  1.00 20.00    -0.084 Cl
HETATM   19  C11 IMN  4505      -1.159  38.333 230.102  1.00 20.00     0.018 A 
ENDBRANCH   9  13
BRANCH   7  20
HETATM   20  C17 IMN  4505      -3.735  43.213 226.091  1.00 20.00     0.098 C 
BRANCH  20  21
HETATM   21  C18 IMN  4505      -5.027  44.026 226.176  1.00 20.00     0.199 C 
HETATM   22  O2  IMN  4505      -5.138  45.244 226.235  1.00 20.00    -0.644 OA
HETATM   23  O3  IMN  4505      -6.158  43.318 226.225  1.00 20.00    -0.644 OA
ENDBRANCH  20  21
ENDBRANCH   7  20
BRANCH   4  24
HETATM   24  O   IMN  4505       1.151  44.897 227.878  1.00 20.00    -0.356 OA
HETATM   25  C6  IMN  4505       1.300  46.094 228.643  1.00 20.00     0.210 C 
ENDBRANCH   4  24
TORSDOF 4
ENDMDL
MODEL 3
REMARK VINA RESULT:      -7.3      8.578     11.916
REMARK  4 active torsions:
REMARK  status: ('A' for Active; 'I' for Inactive)
REMARK    1  A    between atoms: C3_4  and  O_21 
REMARK    2  A    between atoms: C17_18  and  C7_8 
REMARK    3  A    between atoms: C10_11  and  C9_10 
REMARK       I    between atoms: C9_10  and  N_20 
REMARK    4  A    between atoms: C17_18  and  C18_19 
ROOT
HETATM    1  C   IMN  4505       2.175  35.054 236.331  1.00 20.00     0.054 A 
HETATM    2  C1  IMN  4505       2.795  35.137 237.681  1.00 20.00     0.006 A 
HETATM    3  C2  IMN  4505       3.356  34.009 238.254  1.00 20.00     0.051 A 
HETATM    4  C3  IMN  4505       3.344  32.788 237.598  1.00 20.00     0.069 A 
HETATM    5  C4  IMN  4505       2.770  32.692 236.336  1.00 20.00     0.039 A 
HETATM    6  C5  IMN  4505       2.193  33.804 235.709  1.00 20.00     0.034 A 
HETATM    7  C7  IMN  4505       2.670  36.539 238.167  1.00 20.00     0.006 A 
HETATM    8  C8  IMN  4505       1.974  37.234 237.055  1.00 20.00     0.028 A 
HETATM    9  C9  IMN  4505       0.858  36.668 235.077  1.00 20.00     0.263 C 
HETATM   10  C16 IMN  4505       1.567  38.681 236.977  1.00 20.00     0.070 C 
HETATM   11  N   IMN  4505       1.744  36.317 236.087  1.00 20.00    -0.281 N 
HETATM   12  O1  IMN  4505      -0.019  37.442 235.387  1.00 20.00    -0.267 OA
ENDROOT
BRANCH   9  13
HETATM   13  C10 IMN  4505       0.638  36.141 233.681  1.00 20.00     0.033 A 
HETATM   14  C15 IMN  4505       0.034  34.951 233.279  1.00 20.00     0.018 A 
HETATM   15  C14 IMN  4505      -0.078  34.659 231.919  1.00 20.00     0.025 A 
HETATM   16  C13 IMN  4505       0.400  35.542 230.962  1.00 20.00     0.034 A 
HETATM   17  C12 IMN  4505       0.997  36.727 231.357  1.00 20.00     0.025 A 
HETATM   18 CL   IMN  4505       0.252  35.164 229.216  1.00 20.00    -0.084 Cl
HETATM   19  C11 IMN  4505       1.112  37.017 232.705  1.00 20.00     0.018 A 
ENDBRANCH   9  13
BRANCH   7  20
HETATM   20  C17 IMN  4505       3.191  36.954 239.533  1.00 20.00     0.098 C 
BRANCH  20  21
HETATM   21  C18 IMN  4505       4.187  38.080 239.813  1.00 20.00     0.199 C 
HETATM   22  O2  IMN  4505       4.136  39.236 239.414  1.00 20.00    -0.644 OA
HETATM   23  O3  IMN  4505       5.250  37.747 240.549  1.00 20.00    -0.644 OA
ENDBRANCH  20  21
ENDBRANCH   7  20
BRANCH   4  24
HETATM   24  O   IMN  4505       3.921  31.697 238.218  1.00 20.00    -0.356 OA
HETATM   25  C6  IMN  4505       4.395  30.542 237.523  1.00 20.00     0.210 C 
ENDBRANCH   4  24
TORSDOF 4
ENDMDL
MODEL 4
REMARK VINA RESULT:      -7.0      6.840     10.166
REMARK  4 active torsions:
REMARK  status: ('A' for Active; 'I' for Inactive)
REMARK    1  A    between atoms: C3_4  and  O_21 
REMARK    2  A    between atoms: C17_18  and  C7_8 
REMARK    3  A    between atoms: C10_11  and  C9_10 
REMARK       I    between atoms: C9_10  and  N_20 
REMARK    4  A    between atoms: C17_18  and  C18_19 
ROOT
HETATM    1  C   IMN  4505       1.127  36.499 234.715  1.00 20.00     0.054 A 
HETATM    2  C1  IMN  4505       1.764  35.630 235.742  1.00 20.00     0.006 A 
HETATM    3  C2  IMN  4505       2.443  36.200 236.804  1.00 20.00     0.051 A 
HETATM    4  C3  IMN  4505       2.553  37.576 236.933  1.00 20.00     0.069 A 
HETATM    5  C4  IMN  4505       1.963  38.403 235.984  1.00 20.00     0.039 A 
HETATM    6  C5  IMN  4505       1.261  37.878 234.891  1.00 20.00     0.034 A 
HETATM    7  C7  IMN  4505       1.512  34.210 235.372  1.00 20.00     0.006 A 
HETATM    8  C8  IMN  4505       0.714  34.309 234.124  1.00 20.00     0.028 A 
HETATM    9  C9  IMN  4505       0.093  35.957 232.582  1.00 20.00     0.263 C 
HETATM   10  C16 IMN  4505       0.168  33.188 233.282  1.00 20.00     0.070 C 
HETATM   11  N   IMN  4505       0.560  35.625 233.848  1.00 20.00    -0.281 N 
HETATM   12  O1  IMN  4505       0.382  35.190 231.693  1.00 20.00    -0.267 OA
ENDROOT
BRANCH   9  13
HETATM   13  C10 IMN  4505      -0.564  37.197 232.028  1.00 20.00     0.033 A 
HETATM   14  C15 IMN  4505      -1.420  38.094 232.665  1.00 20.00     0.018 A 
HETATM   15  C14 IMN  4505      -1.911  39.195 231.962  1.00 20.00     0.025 A 
HETATM   16  C13 IMN  4505      -1.553  39.410 230.639  1.00 20.00     0.034 A 
HETATM   17  C12 IMN  4505      -0.699  38.524 230.005  1.00 20.00     0.025 A 
HETATM   18 CL   IMN  4505      -2.185  40.828 229.741  1.00 20.00    -0.084 Cl
HETATM   19  C11 IMN  4505      -0.214  37.430 230.699  1.00 20.00     0.018 A 
ENDBRANCH   9  13
BRANCH   7  20
HETATM   20  C17 IMN  4505       2.052  33.064 236.212  1.00 20.00     0.098 C 
BRANCH  20  21
HETATM   21  C18 IMN  4505       3.140  32.075 235.794  1.00 20.00     0.199 C 
HETATM   22  O2  IMN  4505       3.986  31.553 236.508  1.00 20.00    -0.644 OA
HETATM   23  O3  IMN  4505       3.188  31.778 234.493  1.00 20.00    -0.644 OA
ENDBRANCH  20  21
ENDBRANCH   7  20
BRANCH   4  24
HETATM   24  O   IMN  4505       3.239  38.087 238.016  1.00 20.00    -0.356 OA
HETATM   25  C6  IMN  4505       3.643  37.309 239.144  1.00 20.00     0.210 C 
ENDBRANCH   4  24
TORSDOF 4
ENDMDL
MODEL 5
REMARK VINA RESULT:      -6.6      3.519      6.617
REMARK  4 active torsions:
REMARK  status: ('A' for Active; 'I' for Inactive)
REMARK    1  A    between atoms: C3_4  and  O_21 
REMARK    2  A    between atoms: C17_18  and  C7_8 
REMARK    3  A    between atoms: C10_11  and  C9_10 
REMARK       I    between atoms: C9_10  and  N_20 
REMARK    4  A    between atoms: C17_18  and  C18_19 
ROOT
HETATM    1  C   IMN  4505      -2.951  40.731 228.827  1.00 20.00     0.054 A 
HETATM    2  C1  IMN  4505      -1.699  41.138 229.521  1.00 20.00     0.006 A 
HETATM    3  C2  IMN  4505      -1.313  40.497 230.685  1.00 20.00     0.051 A 
HETATM    4  C3  IMN  4505      -2.080  39.479 231.233  1.00 20.00     0.069 A 
HETATM    5  C4  IMN  4505      -3.253  39.085 230.598  1.00 20.00     0.039 A 
HETATM    6  C5  IMN  4505      -3.685  39.698 229.415  1.00 20.00     0.034 A 
HETATM    7  C7  IMN  4505      -1.074  42.243 228.743  1.00 20.00     0.006 A 
HETATM    8  C8  IMN  4505      -2.002  42.436 227.600  1.00 20.00     0.028 A 
HETATM    9  C9  IMN  4505      -4.138  41.731 226.956  1.00 20.00     0.263 C 
HETATM   10  C16 IMN  4505      -1.891  43.428 226.474  1.00 20.00     0.070 C 
HETATM   11  N   IMN  4505      -3.010  41.546 227.746  1.00 20.00    -0.281 N 
HETATM   12  O1  IMN  4505      -4.389  42.873 226.649  1.00 20.00    -0.267 OA
ENDROOT
BRANCH   9  13
HETATM   13  C10 IMN  4505      -5.252  40.805 226.532  1.00 20.00     0.033 A 
HETATM   14  C15 IMN  4505      -6.505  40.618 227.116  1.00 20.00     0.018 A 
HETATM   15  C14 IMN  4505      -7.400  39.709 226.550  1.00 20.00     0.025 A 
HETATM   16  C13 IMN  4505      -7.060  38.993 225.410  1.00 20.00     0.034 A 
HETATM   17  C12 IMN  4505      -5.819  39.180 224.827  1.00 20.00     0.025 A 
HETATM   18 CL   IMN  4505      -8.214  37.828 224.686  1.00 20.00    -0.084 Cl
HETATM   19  C11 IMN  4505      -4.929  40.078 225.388  1.00 20.00     0.018 A 
ENDBRANCH   9  13
BRANCH   7  20
HETATM   20  C17 IMN  4505       0.218  42.902 229.199  1.00 20.00     0.098 C 
BRANCH  20  21
HETATM   21  C18 IMN  4505       0.372  44.343 229.686  1.00 20.00     0.199 C 
HETATM   22  O2  IMN  4505       0.631  44.721 230.822  1.00 20.00    -0.644 OA
HETATM   23  O3  IMN  4505       0.164  45.292 228.771  1.00 20.00    -0.644 OA
ENDBRANCH  20  21
ENDBRANCH   7  20
BRANCH   4  24
HETATM   24  O   IMN  4505      -1.644  38.874 232.395  1.00 20.00    -0.356 OA
HETATM   25  C6  IMN  4505      -2.491  38.578 233.506  1.00 20.00     0.210 C 
ENDBRANCH   4  24
TORSDOF 4
ENDMDL
MODEL 6
REMARK VINA RESULT:      -6.5      7.491     10.993
REMARK  4 active torsions:
REMARK  status: ('A' for Active; 'I' for Inactive)
REMARK    1  A    between atoms: C3_4  and  O_21 
REMARK    2  A    between atoms: C17_18  and  C7_8 
REMARK    3  A    between atoms: C10_11  and  C9_10 
REMARK       I    between atoms: C9_10  and  N_20 
REMARK    4  A    between atoms: C17_18  and  C18_19 
ROOT
HETATM    1  C   IMN  4505       1.590  36.689 235.633  1.00 20.00     0.054 A 
HETATM    2  C1  IMN  4505       2.419  36.044 236.687  1.00 20.00     0.006 A 
HETATM    3  C2  IMN  4505       3.113  36.823 237.596  1.00 20.00     0.051 A 
HETATM    4  C3  IMN  4505       3.062  38.207 237.541  1.00 20.00     0.069 A 
HETATM    5  C4  IMN  4505       2.292  38.829 236.564  1.00 20.00     0.039 A 
HETATM    6  C5  IMN  4505       1.567  38.086 235.623  1.00 20.00     0.034 A 
HETATM    7  C7  IMN  4505       2.312  34.567 236.523  1.00 20.00     0.006 A 
HETATM    8  C8  IMN  4505       1.401  34.408 235.362  1.00 20.00     0.028 A 
HETATM    9  C9  IMN  4505       0.447  35.754 233.702  1.00 20.00     0.263 C 
HETATM   10  C16 IMN  4505       0.926  33.130 234.726  1.00 20.00     0.070 C 
HETATM   11  N   IMN  4505       1.061  35.649 234.944  1.00 20.00    -0.281 N 
HETATM   12  O1  IMN  4505       0.749  34.911 232.889  1.00 20.00    -0.267 OA
ENDROOT
BRANCH   9  13
HETATM   13  C10 IMN  4505      -0.405  36.827 233.070  1.00 20.00     0.033 A 
HETATM   14  C15 IMN  4505      -1.432  37.578 233.640  1.00 20.00     0.018 A 
HETATM   15  C14 IMN  4505      -2.091  38.539 232.871  1.00 20.00     0.025 A 
HETATM   16  C13 IMN  4505      -1.731  38.760 231.549  1.00 20.00     0.034 A 
HETATM   17  C12 IMN  4505      -0.709  38.019 230.983  1.00 20.00     0.025 A 
HETATM   18 CL   IMN  4505      -2.579  39.997 230.567  1.00 20.00    -0.084 Cl
HETATM   19  C11 IMN  4505      -0.057  37.063 231.741  1.00 20.00     0.018 A 
ENDBRANCH   9  13
BRANCH   7  20
HETATM   20  C17 IMN  4505       3.062  33.612 237.438  1.00 20.00     0.098 C 
BRANCH  20  21
HETATM   21  C18 IMN  4505       3.161  32.095 237.270  1.00 20.00     0.199 C 
HETATM   22  O2  IMN  4505       2.698  31.233 238.006  1.00 20.00    -0.644 OA
HETATM   23  O3  IMN  4505       3.863  31.671 236.216  1.00 20.00    -0.644 OA
ENDBRANCH  20  21
ENDBRANCH   7  20
BRANCH   4  24
HETATM   24  O   IMN  4505       3.773  38.933 238.476  1.00 20.00    -0.356 OA
HETATM   25  C6  IMN  4505       4.186  38.415 239.742  1.00 20.00     0.210 C 
ENDBRANCH   4  24
TORSDOF 4
ENDMDL
MODEL 7
REMARK VINA RESULT:      -6.4      7.741     11.200
REMARK  4 active torsions:
REMARK  status: ('A' for Active; 'I' for Inactive)
REMARK    1  A    between atoms: C3_4  and  O_21 
REMARK    2  A    between atoms: C17_18  and  C7_8 
REMARK    3  A    between atoms: C10_11  and  C9_10 
REMARK       I    between atoms: C9_10  and  N_20 
REMARK    4  A    between atoms: C17_18  and  C18_19 
ROOT
HETATM    1  C   IMN  4505       1.455  35.226 235.331  1.00 20.00     0.054 A 
HETATM    2  C1  IMN  4505       2.231  34.922 236.564  1.00 20.00     0.006 A 
HETATM    3  C2  IMN  4505       2.502  33.608 236.903  1.00 20.00     0.051 A 
HETATM    4  C3  IMN  4505       2.055  32.556 236.119  1.00 20.00     0.069 A 
HETATM    5  C4  IMN  4505       1.329  32.821 234.963  1.00 20.00     0.039 A 
HETATM    6  C5  IMN  4505       1.031  34.133 234.572  1.00 20.00     0.034 A 
HETATM    7  C7  IMN  4505       2.580  36.210 237.224  1.00 20.00     0.006 A 
HETATM    8  C8  IMN  4505       1.989  37.235 236.328  1.00 20.00     0.028 A 
HETATM    9  C9  IMN  4505       0.526  37.315 234.503  1.00 20.00     0.263 C 
HETATM   10  C16 IMN  4505       2.017  38.731 236.486  1.00 20.00     0.070 C 
HETATM   11  N   IMN  4505       1.386  36.580 235.309  1.00 20.00    -0.281 N 
HETATM   12  O1  IMN  4505      -0.042  38.239 235.038  1.00 20.00    -0.267 OA
ENDROOT
BRANCH   9  13
HETATM   13  C10 IMN  4505      -0.006  37.095 233.108  1.00 20.00     0.033 A 
HETATM   14  C15 IMN  4505      -1.325  37.122 232.659  1.00 20.00     0.018 A 
HETATM   15  C14 IMN  4505      -1.599  36.900 231.308  1.00 20.00     0.025 A 
HETATM   16  C13 IMN  4505      -0.572  36.659 230.407  1.00 20.00     0.034 A 
HETATM   17  C12 IMN  4505       0.739  36.635 230.848  1.00 20.00     0.025 A 
HETATM   18 CL   IMN  4505      -0.929  36.376 228.672  1.00 20.00    -0.084 Cl
HETATM   19  C11 IMN  4505       1.012  36.851 232.187  1.00 20.00     0.018 A 
ENDBRANCH   9  13
BRANCH   7  20
HETATM   20  C17 IMN  4505       3.361  36.246 238.528  1.00 20.00     0.098 C 
BRANCH  20  21
HETATM   21  C18 IMN  4505       2.845  35.811 239.900  1.00 20.00     0.199 C 
HETATM   22  O2  IMN  4505       1.691  35.549 240.212  1.00 20.00    -0.644 OA
HETATM   23  O3  IMN  4505       3.758  35.745 240.871  1.00 20.00    -0.644 OA
ENDBRANCH  20  21
ENDBRANCH   7  20
BRANCH   4  24
HETATM   24  O   IMN  4505       2.358  31.266 236.506  1.00 20.00    -0.356 OA
HETATM   25  C6  IMN  4505       3.622  30.871 237.043  1.00 20.00     0.210 C 
ENDBRANCH   4  24
TORSDOF 4
ENDMDL
MODEL 8
REMARK VINA RESULT:      -6.4      7.218     10.462
REMARK  4 active torsions:
REMARK  status: ('A' for Active; 'I' for Inactive)
REMARK    1  A    between atoms: C3_4  and  O_21 
REMARK    2  A    between atoms: C17_18  and  C7_8 
REMARK    3  A    between atoms: C10_11  and  C9_10 
REMARK       I    between atoms: C9_10  and  N_20 
REMARK    4  A    between atoms: C17_18  and  C18_19 
ROOT
HETATM    1  C   IMN  4505       0.722  35.402 234.108  1.00 20.00     0.054 A 
HETATM    2  C1  IMN  4505       0.338  34.546 232.952  1.00 20.00     0.006 A 
HETATM    3  C2  IMN  4505       0.351  35.068 231.671  1.00 20.00     0.051 A 
HETATM    4  C3  IMN  4505       0.708  36.388 231.436  1.00 20.00     0.069 A 
HETATM    5  C4  IMN  4505       1.069  37.202 232.503  1.00 20.00     0.039 A 
HETATM    6  C5  IMN  4505       1.078  36.722 233.819  1.00 20.00     0.034 A 
HETATM    7  C7  IMN  4505      -0.006  33.193 233.469  1.00 20.00     0.006 A 
HETATM    8  C8  IMN  4505       0.202  33.314 234.934  1.00 20.00     0.028 A 
HETATM    9  C9  IMN  4505       0.586  35.007 236.503  1.00 20.00     0.263 C 
HETATM   10  C16 IMN  4505       0.005  32.258 235.988  1.00 20.00     0.070 C 
HETATM   11  N   IMN  4505       0.604  34.582 235.180  1.00 20.00    -0.281 N 
HETATM   12  O1  IMN  4505      -0.251  34.497 237.212  1.00 20.00    -0.267 OA
ENDROOT
BRANCH   9  13
HETATM   13  C10 IMN  4505       1.287  36.132 237.225  1.00 20.00     0.033 A 
HETATM   14  C15 IMN  4505       0.734  37.236 237.872  1.00 20.00     0.018 A 
HETATM   15  C14 IMN  4505       1.573  38.162 238.493  1.00 20.00     0.025 A 
HETATM   16  C13 IMN  4505       2.950  37.994 238.479  1.00 20.00     0.034 A 
HETATM   17  C12 IMN  4505       3.502  36.897 237.841  1.00 20.00     0.025 A 
HETATM   18 CL   IMN  4505       4.024  39.185 239.280  1.00 20.00    -0.084 Cl
HETATM   19  C11 IMN  4505       2.672  35.979 237.221  1.00 20.00     0.018 A 
ENDBRANCH   9  13
BRANCH   7  20
HETATM   20  C17 IMN  4505      -0.461  32.081 232.538  1.00 20.00     0.098 C 
BRANCH  20  21
HETATM   21  C18 IMN  4505       0.397  30.920 232.033  1.00 20.00     0.199 C 
HETATM   22  O2  IMN  4505       1.519  30.604 232.411  1.00 20.00    -0.644 OA
HETATM   23  O3  IMN  4505      -0.129  30.194 231.044  1.00 20.00    -0.644 OA
ENDBRANCH  20  21
ENDBRANCH   7  20
BRANCH   4  24
HETATM   24  O   IMN  4505       0.705  36.852 230.135  1.00 20.00    -0.356 OA
HETATM   25  C6  IMN  4505      -0.395  37.540 229.537  1.00 20.00     0.210 C 
ENDBRANCH   4  24
TORSDOF 4
ENDMDL
MODEL 9
REMARK VINA RESULT:      -6.3      7.114     10.901
REMARK  4 active torsions:
REMARK  status: ('A' for Active; 'I' for Inactive)
REMARK    1  A    between atoms: C3_4  and  O_21 
REMARK    2  A    between atoms: C17_18  and  C7_8 
REMARK    3  A    between atoms: C10_11  and  C9_10 
REMARK       I    between atoms: C9_10  and  N_20 
REMARK    4  A    between atoms: C17_18  and  C18_19 
ROOT
HETATM    1  C   IMN  4505      -0.382  36.295 236.336  1.00 20.00     0.054 A 
HETATM    2  C1  IMN  4505      -0.247  35.923 237.770  1.00 20.00     0.006 A 
HETATM    3  C2  IMN  4505      -1.327  35.388 238.450  1.00 20.00     0.051 A 
HETATM    4  C3  IMN  4505      -2.549  35.197 237.823  1.00 20.00     0.069 A 
HETATM    5  C4  IMN  4505      -2.693  35.539 236.483  1.00 20.00     0.039 A 
HETATM    6  C5  IMN  4505      -1.631  36.080 235.748  1.00 20.00     0.034 A 
HETATM    7  C7  IMN  4505       1.144  36.232 238.203  1.00 20.00     0.006 A 
HETATM    8  C8  IMN  4505       1.779  36.777 236.976  1.00 20.00     0.028 A 
HETATM    9  C9  IMN  4505       1.122  37.492 234.848  1.00 20.00     0.263 C 
HETATM   10  C16 IMN  4505       3.191  37.268 236.805  1.00 20.00     0.070 C 
HETATM   11  N   IMN  4505       0.843  36.769 236.000  1.00 20.00    -0.281 N 
HETATM   12  O1  IMN  4505       1.829  38.463 234.990  1.00 20.00    -0.267 OA
ENDROOT
BRANCH   9  13
HETATM   13  C10 IMN  4505       0.573  37.431 233.444  1.00 20.00     0.033 A 
HETATM   14  C15 IMN  4505       1.048  36.711 232.348  1.00 20.00     0.018 A 
HETATM   15  C14 IMN  4505       0.375  36.789 231.128  1.00 20.00     0.025 A 
HETATM   16  C13 IMN  4505      -0.766  37.568 230.995  1.00 20.00     0.034 A 
HETATM   17  C12 IMN  4505      -1.242  38.280 232.082  1.00 20.00     0.025 A 
HETATM   18 CL   IMN  4505      -1.628  37.662 229.426  1.00 20.00    -0.084 Cl
HETATM   19  C11 IMN  4505      -0.574  38.207 233.291  1.00 20.00     0.018 A 
ENDBRANCH   9  13
BRANCH   7  20
HETATM   20  C17 IMN  4505       1.604  35.985 239.630  1.00 20.00     0.098 C 
BRANCH  20  21
HETATM   21  C18 IMN  4505       3.011  35.571 240.065  1.00 20.00     0.199 C 
HETATM   22  O2  IMN  4505       3.452  34.434 240.174  1.00 20.00    -0.644 OA
HETATM   23  O3  IMN  4505       3.834  36.568 240.395  1.00 20.00    -0.644 OA
ENDBRANCH  20  21
ENDBRANCH   7  20
BRANCH   4  24
HETATM   24  O   IMN  4505      -3.590  34.657 238.552  1.00 20.00    -0.356 OA
HETATM   25  C6  IMN  4505      -3.490  34.279 239.926  1.00 20.00     0.210 C 
ENDBRANCH   4  24
TORSDOF 4
ENDMDL
