MODEL 1
REMARK VINA RESULT:      -7.6      0.000      0.000
REMARK  5 active torsions:
REMARK  status: ('A' for Active; 'I' for Inactive)
REMARK    1  A    between atoms: C11_11  and  O2_25 
REMARK    2  A    between atoms: C17_17  and  C20_20 
REMARK    3  A    between atoms: C17_17  and  O3_27 
REMARK    4  A    between atoms: C20_20  and  C21_21 
REMARK    5  A    between atoms: C21_21  and  O5_30 
ROOT
HETATM    1  C1  DEX  2957      -0.504  37.864 230.902  1.00 20.00    -0.006 A 
HETATM    2  C2  DEX  2957      -0.232  37.826 229.602  1.00 20.00     0.052 A 
HETATM    3  C3  DEX  2957      -0.105  36.482 228.949  1.00 20.00     0.172 A 
HETATM    4  C4  DEX  2957      -0.173  35.261 229.817  1.00 20.00     0.058 A 
HETATM    5  C5  DEX  2957      -0.443  35.378 231.114  1.00 20.00    -0.061 A 
HETATM    6  C6  DEX  2957      -0.481  34.111 231.916  1.00 20.00     0.036 C 
HETATM    7  C7  DEX  2957       0.450  34.243 233.119  1.00 20.00     0.013 C 
HETATM    8  C8  DEX  2957       0.267  35.550 233.883  1.00 20.00     0.035 C 
HETATM    9  C9  DEX  2957       0.256  36.799 233.001  1.00 20.00     0.147 C 
HETATM   10  C10 DEX  2957      -0.700  36.685 231.812  1.00 20.00     0.036 A 
HETATM   11  C11 DEX  2957       0.236  38.128 233.755  1.00 20.00     0.160 C 
HETATM   12  C12 DEX  2957       1.084  38.187 235.021  1.00 20.00     0.048 C 
HETATM   13  C13 DEX  2957       0.896  36.957 235.908  1.00 20.00     0.001 C 
HETATM   14  C14 DEX  2957       1.202  35.710 235.078  1.00 20.00     0.005 C 
HETATM   15  C15 DEX  2957       1.403  34.579 236.081  1.00 20.00     0.013 C 
HETATM   16  C16 DEX  2957       1.997  35.279 237.299  1.00 20.00     0.025 C 
HETATM   17  C17 DEX  2957       1.957  36.773 236.993  1.00 20.00     0.131 C 
HETATM   18  C18 DEX  2957      -0.501  36.966 236.528  1.00 20.00     0.019 C 
HETATM   19  C19 DEX  2957      -2.176  36.715 232.201  1.00 20.00     0.028 C 
HETATM   20  C22 DEX  2957       3.364  34.699 237.649  1.00 20.00     0.013 C 
HETATM   21  F1  DEX  2957       1.502  36.824 232.449  1.00 20.00    -0.238 F 
HETATM   22  O1  DEX  2957       0.048  36.389 227.734  1.00 20.00    -0.289 OA
ENDROOT
BRANCH  17  23
HETATM   23  C20 DEX  2957       1.736  37.630 238.229  1.00 20.00     0.185 C 
HETATM   24  O4  DEX  2957       1.599  37.107 239.332  1.00 20.00    -0.292 OA
BRANCH  23  25
HETATM   25  C21 DEX  2957       1.654  39.147 238.171  1.00 20.00     0.245 C 
BRANCH  25  26
HETATM   26  O5  DEX  2957       0.528  39.600 238.906  1.00 20.00    -0.393 OA
ATOM     27  H5  DEX  2957       0.714  40.446 239.296  1.00  0.00     0.209 HD
ENDBRANCH  25  26
ENDBRANCH  23  25
ENDBRANCH  17  23
BRANCH  17  28
HETATM   28  O3  DEX  2957       3.234  37.122 236.477  1.00 20.00    -0.381 OA
ATOM     29  H3  DEX  2957       3.739  37.571 237.146  1.00  0.00     0.211 HD
ENDBRANCH  17  28
BRANCH  11  30
HETATM   30  O2  DEX  2957      -1.092  38.437 234.152  1.00 20.00    -0.392 OA
ATOM     31  H2  DEX  2957      -1.649  37.676 234.034  1.00  0.00     0.210 HD
ENDBRANCH  11  30
TORSDOF 5
ENDMDL
MODEL 2
REMARK VINA RESULT:      -7.5      2.000      2.762
REMARK  5 active torsions:
REMARK  status: ('A' for Active; 'I' for Inactive)
REMARK    1  A    between atoms: C11_11  and  O2_25 
REMARK    2  A    between atoms: C17_17  and  C20_20 
REMARK    3  A    between atoms: C17_17  and  O3_27 
REMARK    4  A    between atoms: C20_20  and  C21_21 
REMARK    5  A    between atoms: C21_21  and  O5_30 
ROOT
HETATM    1  C1  DEX  2957       0.782  37.022 232.580  1.00 20.00    -0.006 A 
HETATM    2  C2  DEX  2957       0.778  36.344 231.437  1.00 20.00     0.052 A 
HETATM    3  C3  DEX  2957      -0.152  35.173 231.317  1.00 20.00     0.172 A 
HETATM    4  C4  DEX  2957      -0.933  34.760 232.528  1.00 20.00     0.058 A 
HETATM    5  C5  DEX  2957      -0.872  35.485 233.642  1.00 20.00    -0.061 A 
HETATM    6  C6  DEX  2957      -1.673  34.998 234.813  1.00 20.00     0.036 C 
HETATM    7  C7  DEX  2957      -0.765  34.873 236.033  1.00 20.00     0.013 C 
HETATM    8  C8  DEX  2957       0.113  36.099 236.259  1.00 20.00     0.035 C 
HETATM    9  C9  DEX  2957       0.857  36.580 235.012  1.00 20.00     0.147 C 
HETATM   10  C10 DEX  2957      -0.055  36.737 233.794  1.00 20.00     0.036 A 
HETATM   11  C11 DEX  2957       1.864  37.704 235.249  1.00 20.00     0.160 C 
HETATM   12  C12 DEX  2957       2.672  37.613 236.539  1.00 20.00     0.048 C 
HETATM   13  C13 DEX  2957       1.801  37.283 237.751  1.00 20.00     0.001 C 
HETATM   14  C14 DEX  2957       1.043  35.987 237.463  1.00 20.00     0.005 C 
HETATM   15  C15 DEX  2957       0.532  35.493 238.813  1.00 20.00     0.013 C 
HETATM   16  C16 DEX  2957       1.598  35.965 239.796  1.00 20.00     0.025 C 
HETATM   17  C17 DEX  2957       2.567  36.827 238.992  1.00 20.00     0.131 C 
HETATM   18  C18 DEX  2957       0.900  38.470 238.088  1.00 20.00     0.019 C 
HETATM   19  C19 DEX  2957      -1.028  37.910 233.898  1.00 20.00     0.028 C 
HETATM   20  C22 DEX  2957       2.209  34.785 240.547  1.00 20.00     0.013 C 
HETATM   21  F1  DEX  2957       1.683  35.541 234.700  1.00 20.00    -0.238 F 
HETATM   22  O1  DEX  2957      -0.267  34.574 230.251  1.00 20.00    -0.289 OA
ENDROOT
BRANCH  17  23
HETATM   23  C20 DEX  2957       3.168  37.965 239.802  1.00 20.00     0.185 C 
HETATM   24  O4  DEX  2957       2.456  38.651 240.533  1.00 20.00    -0.292 OA
BRANCH  23  25
HETATM   25  C21 DEX  2957       4.644  38.323 239.745  1.00 20.00     0.245 C 
BRANCH  25  26
HETATM   26  O5  DEX  2957       5.369  37.541 240.681  1.00 20.00    -0.393 OA
ATOM     27  H5  DEX  2957       5.980  38.090 241.158  1.00  0.00     0.209 HD
ENDBRANCH  25  26
ENDBRANCH  23  25
ENDBRANCH  17  23
BRANCH  17  28
HETATM   28  O3  DEX  2957       3.646  35.986 238.608  1.00 20.00    -0.381 OA
ATOM     29  H3  DEX  2957       3.485  35.635 237.739  1.00  0.00     0.211 HD
ENDBRANCH  17  28
BRANCH  11  30
HETATM   30  O2  DEX  2957       1.191  38.954 235.289  1.00 20.00    -0.392 OA
ATOM     31  H2  DEX  2957       1.755  39.612 235.678  1.00  0.00     0.210 HD
ENDBRANCH  11  30
TORSDOF 5
ENDMDL
MODEL 3
REMARK VINA RESULT:      -7.4      2.106      6.794
REMARK  5 active torsions:
REMARK  status: ('A' for Active; 'I' for Inactive)
REMARK    1  A    between atoms: C11_11  and  O2_25 
REMARK    2  A    between atoms: C17_17  and  C20_20 
REMARK    3  A    between atoms: C17_17  and  O3_27 
REMARK    4  A    between atoms: C20_20  and  C21_21 
REMARK    5  A    between atoms: C21_21  and  O5_30 
ROOT
HETATM    1  C1  DEX  2957       2.599  37.257 238.497  1.00 20.00    -0.006 A 
HETATM    2  C2  DEX  2957       2.680  36.930 239.783  1.00 20.00     0.052 A 
HETATM    3  C3  DEX  2957       2.956  35.497 240.128  1.00 20.00     0.172 A 
HETATM    4  C4  DEX  2957       3.003  34.495 239.014  1.00 20.00     0.058 A 
HETATM    5  C5  DEX  2957       2.906  34.897 237.749  1.00 20.00    -0.061 A 
HETATM    6  C6  DEX  2957       2.950  33.832 236.694  1.00 20.00     0.036 C 
HETATM    7  C7  DEX  2957       1.732  33.968 235.783  1.00 20.00     0.013 C 
HETATM    8  C8  DEX  2957       1.490  35.397 235.312  1.00 20.00     0.035 C 
HETATM    9  C9  DEX  2957       1.515  36.442 236.428  1.00 20.00     0.147 C 
HETATM   10  C10 DEX  2957       2.750  36.330 237.325  1.00 20.00     0.036 A 
HETATM   11  C11 DEX  2957       1.116  37.856 236.007  1.00 20.00     0.160 C 
HETATM   12  C12 DEX  2957      -0.027  37.951 235.001  1.00 20.00     0.048 C 
HETATM   13  C13 DEX  2957       0.132  36.969 233.841  1.00 20.00     0.001 C 
HETATM   14  C14 DEX  2957       0.265  35.559 234.416  1.00 20.00     0.005 C 
HETATM   15  C15 DEX  2957       0.007  34.607 233.252  1.00 20.00     0.013 C 
HETATM   16  C16 DEX  2957      -0.990  35.365 232.381  1.00 20.00     0.025 C 
HETATM   17  C17 DEX  2957      -1.126  36.754 233.000  1.00 20.00     0.131 C 
HETATM   18  C18 DEX  2957       1.300  37.393 232.952  1.00 20.00     0.019 C 
HETATM   19  C19 DEX  2957       4.049  36.751 236.642  1.00 20.00     0.028 C 
HETATM   20  C22 DEX  2957      -2.283  34.572 232.215  1.00 20.00     0.013 C 
HETATM   21  F1  DEX  2957       0.468  36.096 237.229  1.00 20.00    -0.238 F 
HETATM   22  O1  DEX  2957       3.138  35.160 241.294  1.00 20.00    -0.289 OA
ENDROOT
BRANCH  17  23
HETATM   23  C20 DEX  2957      -1.378  37.844 231.971  1.00 20.00     0.185 C 
HETATM   24  O4  DEX  2957      -1.142  37.643 230.781  1.00 20.00    -0.292 OA
BRANCH  23  25
HETATM   25  C21 DEX  2957      -1.907  39.219 232.345  1.00 20.00     0.245 C 
BRANCH  25  26
HETATM   26  O5  DEX  2957      -3.325  39.226 232.286  1.00 20.00    -0.393 OA
ATOM     27  H5  DEX  2957      -3.616  38.900 231.442  1.00  0.00     0.209 HD
ENDBRANCH  25  26
ENDBRANCH  23  25
ENDBRANCH  17  23
BRANCH  17  28
HETATM   28  O3  DEX  2957      -2.268  36.718 233.845  1.00 20.00    -0.381 OA
ATOM     29  H3  DEX  2957      -2.099  36.152 234.589  1.00  0.00     0.211 HD
ENDBRANCH  17  28
BRANCH  11  30
HETATM   30  O2  DEX  2957       2.225  38.512 235.411  1.00 20.00    -0.392 OA
ATOM     31  H2  DEX  2957       2.388  39.336 235.855  1.00  0.00     0.210 HD
ENDBRANCH  11  30
TORSDOF 5
ENDMDL
MODEL 4
REMARK VINA RESULT:      -7.4      2.095      3.539
REMARK  5 active torsions:
REMARK  status: ('A' for Active; 'I' for Inactive)
REMARK    1  A    between atoms: C11_11  and  O2_25 
REMARK    2  A    between atoms: C17_17  and  C20_20 
REMARK    3  A    between atoms: C17_17  and  O3_27 
REMARK    4  A    between atoms: C20_20  and  C21_21 
REMARK    5  A    between atoms: C21_21  and  O5_30 
ROOT
HETATM    1  C1  DEX  2957      -1.879  34.791 233.590  1.00 20.00    -0.006 A 
HETATM    2  C2  DEX  2957      -2.883  35.193 232.818  1.00 20.00     0.052 A 
HETATM    3  C3  DEX  2957      -2.591  36.217 231.762  1.00 20.00     0.172 A 
HETATM    4  C4  DEX  2957      -1.218  36.817 231.714  1.00 20.00     0.058 A 
HETATM    5  C5  DEX  2957      -0.264  36.367 232.525  1.00 20.00    -0.061 A 
HETATM    6  C6  DEX  2957       1.079  37.027 232.423  1.00 20.00     0.036 C 
HETATM    7  C7  DEX  2957       1.517  37.504 233.806  1.00 20.00     0.013 C 
HETATM    8  C8  DEX  2957       1.347  36.445 234.890  1.00 20.00     0.035 C 
HETATM    9  C9  DEX  2957      -0.024  35.769 234.902  1.00 20.00     0.147 C 
HETATM   10  C10 DEX  2957      -0.453  35.260 233.525  1.00 20.00     0.036 A 
HETATM   11  C11 DEX  2957      -0.273  34.822 236.076  1.00 20.00     0.160 C 
HETATM   12  C12 DEX  2957       0.284  35.273 237.422  1.00 20.00     0.048 C 
HETATM   13  C13 DEX  2957       1.721  35.783 237.319  1.00 20.00     0.001 C 
HETATM   14  C14 DEX  2957       1.762  36.908 236.284  1.00 20.00     0.005 C 
HETATM   15  C15 DEX  2957       3.079  37.640 236.514  1.00 20.00     0.013 C 
HETATM   16  C16 DEX  2957       3.312  37.500 238.015  1.00 20.00     0.025 C 
HETATM   17  C17 DEX  2957       2.214  36.573 238.531  1.00 20.00     0.131 C 
HETATM   18  C18 DEX  2957       2.669  34.624 237.018  1.00 20.00     0.019 C 
HETATM   19  C19 DEX  2957       0.346  34.056 233.033  1.00 20.00     0.028 C 
HETATM   20  C22 DEX  2957       3.407  38.868 238.683  1.00 20.00     0.013 C 
HETATM   21  F1  DEX  2957      -0.890  36.783 235.188  1.00 20.00    -0.238 F 
HETATM   22  O1  DEX  2957      -3.459  36.551 230.959  1.00 20.00    -0.289 OA
ENDROOT
BRANCH  17  23
HETATM   23  C20 DEX  2957       2.665  35.704 239.695  1.00 20.00     0.185 C 
HETATM   24  O4  DEX  2957       3.767  35.878 240.211  1.00 20.00    -0.292 OA
BRANCH  23  25
HETATM   25  C21 DEX  2957       1.807  34.586 240.264  1.00 20.00     0.245 C 
BRANCH  25  26
HETATM   26  O5  DEX  2957       0.680  35.132 240.932  1.00 20.00    -0.393 OA
ATOM     27  H5  DEX  2957       0.870  35.235 241.857  1.00  0.00     0.209 HD
ENDBRANCH  25  26
ENDBRANCH  23  25
ENDBRANCH  17  23
BRANCH  17  28
HETATM   28  O3  DEX  2957       1.170  37.403 239.020  1.00 20.00    -0.381 OA
ATOM     29  H3  DEX  2957       0.345  36.933 238.987  1.00  0.00     0.211 HD
ENDBRANCH  17  28
BRANCH  11  30
HETATM   30  O2  DEX  2957       0.312  33.557 235.807  1.00 20.00    -0.392 OA
ATOM     31  H2  DEX  2957       0.335  33.037 236.602  1.00  0.00     0.210 HD
ENDBRANCH  11  30
TORSDOF 5
ENDMDL
MODEL 5
REMARK VINA RESULT:      -6.8      2.027      7.168
REMARK  5 active torsions:
REMARK  status: ('A' for Active; 'I' for Inactive)
REMARK    1  A    between atoms: C11_11  and  O2_25 
REMARK    2  A    between atoms: C17_17  and  C20_20 
REMARK    3  A    between atoms: C17_17  and  O3_27 
REMARK    4  A    between atoms: C20_20  and  C21_21 
REMARK    5  A    between atoms: C21_21  and  O5_30 
ROOT
HETATM    1  C1  DEX  2957       2.752  36.284 237.804  1.00 20.00    -0.006 A 
HETATM    2  C2  DEX  2957       3.821  36.730 238.456  1.00 20.00     0.052 A 
HETATM    3  C3  DEX  2957       3.753  38.099 239.064  1.00 20.00     0.172 A 
HETATM    4  C4  DEX  2957       2.535  38.934 238.800  1.00 20.00     0.058 A 
HETATM    5  C5  DEX  2957       1.506  38.421 238.131  1.00 20.00    -0.061 A 
HETATM    6  C6  DEX  2957       0.331  39.324 237.898  1.00 20.00     0.036 C 
HETATM    7  C7  DEX  2957      -0.001  39.352 236.409  1.00 20.00     0.013 C 
HETATM    8  C8  DEX  2957      -0.061  37.964 235.779  1.00 20.00     0.035 C 
HETATM    9  C9  DEX  2957       1.139  37.073 236.102  1.00 20.00     0.147 C 
HETATM   10  C10 DEX  2957       1.457  37.016 237.598  1.00 20.00     0.036 A 
HETATM   11  C11 DEX  2957       1.181  35.741 235.355  1.00 20.00     0.160 C 
HETATM   12  C12 DEX  2957       0.727  35.781 233.899  1.00 20.00     0.048 C 
HETATM   13  C13 DEX  2957      -0.571  36.566 233.714  1.00 20.00     0.001 C 
HETATM   14  C14 DEX  2957      -0.373  37.971 234.285  1.00 20.00     0.005 C 
HETATM   15  C15 DEX  2957      -1.508  38.816 233.719  1.00 20.00     0.013 C 
HETATM   16  C16 DEX  2957      -1.770  38.198 232.349  1.00 20.00     0.025 C 
HETATM   17  C17 DEX  2957      -0.892  36.952 232.270  1.00 20.00     0.131 C 
HETATM   18  C18 DEX  2957      -1.739  35.801 234.332  1.00 20.00     0.019 C 
HETATM   19  C19 DEX  2957       0.424  36.249 238.420  1.00 20.00     0.028 C 
HETATM   20  C22 DEX  2957      -1.579  39.228 231.239  1.00 20.00     0.013 C 
HETATM   21  F1  DEX  2957       2.197  37.727 235.543  1.00 20.00    -0.238 F 
HETATM   22  O1  DEX  2957       4.673  38.521 239.759  1.00 20.00    -0.289 OA
ENDROOT
BRANCH  17  23
HETATM   23  C20 DEX  2957      -1.517  35.831 231.454  1.00 20.00     0.185 C 
HETATM   24  O4  DEX  2957      -2.710  35.868 231.158  1.00 20.00    -0.292 OA
BRANCH  23  25
HETATM   25  C21 DEX  2957      -0.728  34.621 230.982  1.00 20.00     0.245 C 
BRANCH  25  26
HETATM   26  O5  DEX  2957       0.173  35.001 229.953  1.00 20.00    -0.393 OA
ATOM     27  H5  DEX  2957       0.042  34.452 229.189  1.00  0.00     0.209 HD
ENDBRANCH  25  26
ENDBRANCH  23  25
ENDBRANCH  17  23
BRANCH  17  28
HETATM   28  O3  DEX  2957       0.301  37.330 231.598  1.00 20.00    -0.381 OA
ATOM     29  H3  DEX  2957       0.180  37.249 230.659  1.00  0.00     0.211 HD
ENDBRANCH  17  28
BRANCH  11  30
HETATM   30  O2  DEX  2957       0.346  34.796 236.006  1.00 20.00    -0.392 OA
ATOM     31  H2  DEX  2957      -0.481  35.202 236.238  1.00  0.00     0.210 HD
ENDBRANCH  11  30
TORSDOF 5
ENDMDL
MODEL 6
REMARK VINA RESULT:      -6.7      2.376      7.102
REMARK  5 active torsions:
REMARK  status: ('A' for Active; 'I' for Inactive)
REMARK    1  A    between atoms: C11_11  and  O2_25 
REMARK    2  A    between atoms: C17_17  and  C20_20 
REMARK    3  A    between atoms: C17_17  and  O3_27 
REMARK    4  A    between atoms: C20_20  and  C21_21 
REMARK    5  A    between atoms: C21_21  and  O5_30 
ROOT
HETATM    1  C1  DEX  2957       0.691  35.731 238.664  1.00 20.00    -0.006 A 
HETATM    2  C2  DEX  2957       1.615  35.498 239.591  1.00 20.00     0.052 A 
HETATM    3  C3  DEX  2957       2.829  36.378 239.610  1.00 20.00     0.172 A 
HETATM    4  C4  DEX  2957       2.991  37.388 238.515  1.00 20.00     0.058 A 
HETATM    5  C5  DEX  2957       2.026  37.560 237.616  1.00 20.00    -0.061 A 
HETATM    6  C6  DEX  2957       2.270  38.582 236.545  1.00 20.00     0.036 C 
HETATM    7  C7  DEX  2957       2.060  37.942 235.175  1.00 20.00     0.013 C 
HETATM    8  C8  DEX  2957       0.770  37.135 235.079  1.00 20.00     0.035 C 
HETATM    9  C9  DEX  2957       0.553  36.153 236.231  1.00 20.00     0.147 C 
HETATM   10  C10 DEX  2957       0.730  36.797 237.607  1.00 20.00     0.036 A 
HETATM   11  C11 DEX  2957      -0.648  35.221 236.074  1.00 20.00     0.160 C 
HETATM   12  C12 DEX  2957      -0.901  34.694 234.665  1.00 20.00     0.048 C 
HETATM   13  C13 DEX  2957      -0.816  35.793 233.607  1.00 20.00     0.001 C 
HETATM   14  C14 DEX  2957       0.551  36.470 233.722  1.00 20.00     0.005 C 
HETATM   15  C15 DEX  2957       0.744  37.245 232.423  1.00 20.00     0.013 C 
HETATM   16  C16 DEX  2957       0.001  36.404 231.388  1.00 20.00     0.025 C 
HETATM   17  C17 DEX  2957      -0.701  35.295 232.167  1.00 20.00     0.131 C 
HETATM   18  C18 DEX  2957      -1.999  36.749 233.746  1.00 20.00     0.019 C 
HETATM   19  C19 DEX  2957      -0.381  37.776 237.980  1.00 20.00     0.028 C 
HETATM   20  C22 DEX  2957       0.941  35.954 230.274  1.00 20.00     0.013 C 
HETATM   21  F1  DEX  2957       1.590  35.275 236.118  1.00 20.00    -0.238 F 
HETATM   22  O1  DEX  2957       3.664  36.269 240.504  1.00 20.00    -0.289 OA
ENDROOT
BRANCH  17  23
HETATM   23  C20 DEX  2957      -2.026  34.878 231.548  1.00 20.00     0.185 C 
HETATM   24  O4  DEX  2957      -2.578  35.597 230.717  1.00 20.00    -0.292 OA
BRANCH  23  25
HETATM   25  C21 DEX  2957      -2.737  33.589 231.923  1.00 20.00     0.245 C 
BRANCH  25  26
HETATM   26  O5  DEX  2957      -2.035  32.475 231.390  1.00 20.00    -0.393 OA
ATOM     27  H5  DEX  2957      -2.340  31.674 231.799  1.00  0.00     0.209 HD
ENDBRANCH  25  26
ENDBRANCH  23  25
ENDBRANCH  17  23
BRANCH  17  28
HETATM   28  O3  DEX  2957       0.148  34.157 232.119  1.00 20.00    -0.381 OA
ATOM     29  H3  DEX  2957       0.763  34.245 231.400  1.00  0.00     0.211 HD
ENDBRANCH  17  28
BRANCH  11  30
HETATM   30  O2  DEX  2957      -1.835  35.894 236.467  1.00 20.00    -0.392 OA
ATOM     31  H2  DEX  2957      -2.592  35.452 236.100  1.00  0.00     0.210 HD
ENDBRANCH  11  30
TORSDOF 5
ENDMDL
MODEL 7
REMARK VINA RESULT:      -6.6      2.452      6.948
REMARK  5 active torsions:
REMARK  status: ('A' for Active; 'I' for Inactive)
REMARK    1  A    between atoms: C11_11  and  O2_25 
REMARK    2  A    between atoms: C17_17  and  C20_20 
REMARK    3  A    between atoms: C17_17  and  O3_27 
REMARK    4  A    between atoms: C20_20  and  C21_21 
REMARK    5  A    between atoms: C21_21  and  O5_30 
ROOT
HETATM    1  C1  DEX  2957       2.588  37.732 236.381  1.00 20.00    -0.006 A 
HETATM    2  C2  DEX  2957       3.276  38.295 237.369  1.00 20.00     0.052 A 
HETATM    3  C3  DEX  2957       2.860  37.992 238.777  1.00 20.00     0.172 A 
HETATM    4  C4  DEX  2957       1.622  37.174 238.992  1.00 20.00     0.058 A 
HETATM    5  C5  DEX  2957       0.980  36.648 237.951  1.00 20.00    -0.061 A 
HETATM    6  C6  DEX  2957      -0.256  35.853 238.249  1.00 20.00     0.036 C 
HETATM    7  C7  DEX  2957      -1.419  36.393 237.421  1.00 20.00     0.013 C 
HETATM    8  C8  DEX  2957      -1.068  36.600 235.952  1.00 20.00     0.035 C 
HETATM    9  C9  DEX  2957       0.234  37.367 235.717  1.00 20.00     0.147 C 
HETATM   10  C10 DEX  2957       1.410  36.810 236.520  1.00 20.00     0.036 A 
HETATM   11  C11 DEX  2957       0.524  37.727 234.260  1.00 20.00     0.160 C 
HETATM   12  C12 DEX  2957      -0.683  38.147 233.427  1.00 20.00     0.048 C 
HETATM   13  C13 DEX  2957      -1.878  37.216 233.619  1.00 20.00     0.001 C 
HETATM   14  C14 DEX  2957      -2.212  37.158 235.110  1.00 20.00     0.005 C 
HETATM   15  C15 DEX  2957      -3.618  36.573 235.201  1.00 20.00     0.013 C 
HETATM   16  C16 DEX  2957      -4.296  37.066 233.926  1.00 20.00     0.025 C 
HETATM   17  C17 DEX  2957      -3.212  37.762 233.109  1.00 20.00     0.131 C 
HETATM   18  C18 DEX  2957      -1.588  35.853 232.991  1.00 20.00     0.019 C 
HETATM   19  C19 DEX  2957       1.903  35.450 236.032  1.00 20.00     0.028 C 
HETATM   20  C22 DEX  2957      -5.533  37.898 234.252  1.00 20.00     0.013 C 
HETATM   21  F1  DEX  2957      -0.007  38.597 236.254  1.00 20.00    -0.238 F 
HETATM   22  O1  DEX  2957       3.520  38.407 239.726  1.00 20.00    -0.289 OA
ENDROOT
BRANCH  17  23
HETATM   23  C20 DEX  2957      -3.409  37.616 231.608  1.00 20.00     0.185 C 
HETATM   24  O4  DEX  2957      -4.179  36.768 231.162  1.00 20.00    -0.292 OA
BRANCH  23  25
HETATM   25  C21 DEX  2957      -2.670  38.477 230.597  1.00 20.00     0.245 C 
BRANCH  25  26
HETATM   26  O5  DEX  2957      -3.006  39.843 230.785  1.00 20.00    -0.393 OA
ATOM     27  H5  DEX  2957      -2.241  40.329 231.068  1.00  0.00     0.209 HD
ENDBRANCH  25  26
ENDBRANCH  23  25
ENDBRANCH  17  23
BRANCH  17  28
HETATM   28  O3  DEX  2957      -3.303  39.150 233.400  1.00 20.00    -0.381 OA
ATOM     29  H3  DEX  2957      -3.780  39.592 232.707  1.00  0.00     0.211 HD
ENDBRANCH  17  28
BRANCH  11  30
HETATM   30  O2  DEX  2957       1.099  36.613 233.594  1.00 20.00    -0.392 OA
ATOM     31  H2  DEX  2957       0.429  36.150 233.103  1.00  0.00     0.210 HD
ENDBRANCH  11  30
TORSDOF 5
ENDMDL
MODEL 8
REMARK VINA RESULT:      -6.5      1.792      7.086
REMARK  5 active torsions:
REMARK  status: ('A' for Active; 'I' for Inactive)
REMARK    1  A    between atoms: C11_11  and  O2_25 
REMARK    2  A    between atoms: C17_17  and  C20_20 
REMARK    3  A    between atoms: C17_17  and  O3_27 
REMARK    4  A    between atoms: C20_20  and  C21_21 
REMARK    5  A    between atoms: C21_21  and  O5_30 
ROOT
HETATM    1  C1  DEX  2957       1.933  34.610 235.823  1.00 20.00    -0.006 A 
HETATM    2  C2  DEX  2957       2.948  34.701 236.676  1.00 20.00     0.052 A 
HETATM    3  C3  DEX  2957       2.885  35.761 237.734  1.00 20.00     0.172 A 
HETATM    4  C4  DEX  2957       1.745  36.734 237.698  1.00 20.00     0.058 A 
HETATM    5  C5  DEX  2957       0.767  36.584 236.808  1.00 20.00    -0.061 A 
HETATM    6  C6  DEX  2957      -0.331  37.606 236.828  1.00 20.00     0.036 C 
HETATM    7  C7  DEX  2957      -0.504  38.194 235.431  1.00 20.00     0.013 C 
HETATM    8  C8  DEX  2957      -0.566  37.135 234.335  1.00 20.00     0.035 C 
HETATM    9  C9  DEX  2957       0.548  36.090 234.405  1.00 20.00     0.147 C 
HETATM   10  C10 DEX  2957       0.704  35.474 235.797  1.00 20.00     0.036 A 
HETATM   11  C11 DEX  2957       0.602  35.116 233.229  1.00 20.00     0.160 C 
HETATM   12  C12 DEX  2957       0.305  35.714 231.857  1.00 20.00     0.048 C 
HETATM   13  C13 DEX  2957      -0.926  36.619 231.869  1.00 20.00     0.001 C 
HETATM   14  C14 DEX  2957      -0.719  37.704 232.927  1.00 20.00     0.005 C 
HETATM   15  C15 DEX  2957      -1.746  38.788 232.620  1.00 20.00     0.013 C 
HETATM   16  C16 DEX  2957      -1.893  38.727 231.103  1.00 20.00     0.025 C 
HETATM   17  C17 DEX  2957      -1.075  37.523 230.645  1.00 20.00     0.131 C 
HETATM   18  C18 DEX  2957      -2.189  35.785 232.070  1.00 20.00     0.019 C 
HETATM   19  C19 DEX  2957      -0.446  34.552 236.197  1.00 20.00     0.028 C 
HETATM   20  C22 DEX  2957      -1.536  40.066 230.465  1.00 20.00     0.013 C 
HETATM   21  F1  DEX  2957       1.689  36.809 234.210  1.00 20.00    -0.238 F 
HETATM   22  O1  DEX  2957       3.747  35.826 238.606  1.00 20.00    -0.289 OA
ENDROOT
BRANCH  17  23
HETATM   23  C20 DEX  2957      -1.666  36.827 229.429  1.00 20.00     0.185 C 
HETATM   24  O4  DEX  2957      -2.841  37.011 229.117  1.00 20.00    -0.292 OA
BRANCH  23  25
HETATM   25  C21 DEX  2957      -0.863  35.874 228.559  1.00 20.00     0.245 C 
BRANCH  25  26
HETATM   26  O5  DEX  2957       0.233  36.558 227.973  1.00 20.00    -0.393 OA
ATOM     27  H5  DEX  2957       0.977  35.973 227.897  1.00  0.00     0.209 HD
ENDBRANCH  25  26
ENDBRANCH  23  25
ENDBRANCH  17  23
BRANCH  17  28
HETATM   28  O3  DEX  2957       0.200  38.015 230.254  1.00 20.00    -0.381 OA
ATOM     29  H3  DEX  2957       0.770  38.065 231.012  1.00  0.00     0.211 HD
ENDBRANCH  17  28
BRANCH  11  30
HETATM   30  O2  DEX  2957      -0.343  34.074 233.421  1.00 20.00    -0.392 OA
ATOM     31  H2  DEX  2957      -0.062  33.294 232.959  1.00  0.00     0.210 HD
ENDBRANCH  11  30
TORSDOF 5
ENDMDL
MODEL 9
REMARK VINA RESULT:      -6.3      2.159      3.008
REMARK  5 active torsions:
REMARK  status: ('A' for Active; 'I' for Inactive)
REMARK    1  A    between atoms: C11_11  and  O2_25 
REMARK    2  A    between atoms: C17_17  and  C20_20 
REMARK    3  A    between atoms: C17_17  and  O3_27 
REMARK    4  A    between atoms: C20_20  and  C21_21 
REMARK    5  A    between atoms: C21_21  and  O5_30 
ROOT
HETATM    1  C1  DEX  2957      -3.069  37.800 231.952  1.00 20.00    -0.006 A 
HETATM    2  C2  DEX  2957      -3.296  38.782 231.087  1.00 20.00     0.052 A 
HETATM    3  C3  DEX  2957      -2.175  39.194 230.180  1.00 20.00     0.172 A 
HETATM    4  C4  DEX  2957      -0.830  38.561 230.381  1.00 20.00     0.058 A 
HETATM    5  C5  DEX  2957      -0.677  37.587 231.273  1.00 20.00    -0.061 A 
HETATM    6  C6  DEX  2957       0.701  37.014 231.423  1.00 20.00     0.036 C 
HETATM    7  C7  DEX  2957       1.116  37.065 232.891  1.00 20.00     0.013 C 
HETATM    8  C8  DEX  2957       0.043  36.540 233.839  1.00 20.00     0.035 C 
HETATM    9  C9  DEX  2957      -1.351  37.119 233.596  1.00 20.00     0.147 C 
HETATM   10  C10 DEX  2957      -1.785  37.041 232.131  1.00 20.00     0.036 A 
HETATM   11  C11 DEX  2957      -2.406  36.732 234.632  1.00 20.00     0.160 C 
HETATM   12  C12 DEX  2957      -1.927  36.675 236.079  1.00 20.00     0.048 C 
HETATM   13  C13 DEX  2957      -0.599  35.933 236.226  1.00 20.00     0.001 C 
HETATM   14  C14 DEX  2957       0.431  36.600 235.314  1.00 20.00     0.005 C 
HETATM   15  C15 DEX  2957       1.793  36.110 235.793  1.00 20.00     0.013 C 
HETATM   16  C16 DEX  2957       1.597  35.911 237.293  1.00 20.00     0.025 C 
HETATM   17  C17 DEX  2957       0.112  36.142 237.562  1.00 20.00     0.131 C 
HETATM   18  C18 DEX  2957      -0.799  34.443 235.956  1.00 20.00     0.019 C 
HETATM   19  C19 DEX  2957      -2.083  35.623 231.649  1.00 20.00     0.028 C 
HETATM   20  C22 DEX  2957       2.569  36.776 238.090  1.00 20.00     0.013 C 
HETATM   21  F1  DEX  2957      -1.204  38.451 233.849  1.00 20.00    -0.238 F 
HETATM   22  O1  DEX  2957      -2.359  40.028 229.297  1.00 20.00    -0.289 OA
ENDROOT
BRANCH  17  23
HETATM   23  C20 DEX  2957      -0.430  35.283 238.694  1.00 20.00     0.185 C 
HETATM   24  O4  DEX  2957      -1.638  35.236 238.915  1.00 20.00    -0.292 OA
BRANCH  23  25
HETATM   25  C21 DEX  2957       0.470  34.466 239.607  1.00 20.00     0.245 C 
BRANCH  25  26
HETATM   26  O5  DEX  2957       0.735  35.189 240.799  1.00 20.00    -0.393 OA
ATOM     27  H5  DEX  2957       1.635  35.047 241.070  1.00  0.00     0.209 HD
ENDBRANCH  25  26
ENDBRANCH  23  25
ENDBRANCH  17  23
BRANCH  17  28
HETATM   28  O3  DEX  2957      -0.026  37.494 237.974  1.00 20.00    -0.381 OA
ATOM     29  H3  DEX  2957       0.402  37.620 238.812  1.00  0.00     0.211 HD
ENDBRANCH  17  28
BRANCH  11  30
HETATM   30  O2  DEX  2957      -2.925  35.444 234.334  1.00 20.00    -0.392 OA
ATOM     31  H2  DEX  2957      -2.442  34.783 234.815  1.00  0.00     0.210 HD
ENDBRANCH  11  30
TORSDOF 5
ENDMDL
