MODEL 1
REMARK VINA RESULT:      -7.0      0.000      0.000
REMARK  5 active torsions:
REMARK  status: ('A' for Active; 'I' for Inactive)
REMARK    1  A    between atoms: C1_1  and  O3_19 
REMARK    2  A    between atoms: C3_3  and  O2_17 
REMARK    3  A    between atoms: C5_5  and  C7_7 
REMARK    4  A    between atoms: C8_8  and  C9_9 
REMARK    5  A    between atoms: C12_12  and  O1_15 
ROOT
HETATM    1  C1  STL  7009      -4.129  41.137 228.259  1.00 20.00     0.069 A 
HETATM    2  C2  STL  7009      -4.383  41.771 226.995  1.00 20.00     0.073 A 
HETATM    3  C3  STL  7009      -3.400  42.636 226.413  1.00 20.00     0.069 A 
HETATM    4  C4  STL  7009      -2.165  42.889 227.105  1.00 20.00     0.048 A 
HETATM    5  C5  STL  7009      -1.902  42.264 228.367  1.00 20.00    -0.031 A 
HETATM    6  C6  STL  7009      -2.891  41.381 228.945  1.00 20.00     0.048 A 
ENDROOT
BRANCH   5   7
HETATM    7  C7  STL  7009      -0.641  42.554 229.038  1.00 20.00     0.012 C 
HETATM    8  C8  STL  7009       0.532  42.926 228.341  1.00 20.00     0.012 C 
BRANCH   8   9
HETATM    9  C9  STL  7009       1.781  43.187 229.033  1.00 20.00    -0.036 A 
HETATM   10  C10 STL  7009       3.044  42.712 228.509  1.00 20.00     0.014 A 
HETATM   11  C11 STL  7009       4.264  42.986 229.209  1.00 20.00     0.037 A 
HETATM   12  C12 STL  7009       4.239  43.732 230.432  1.00 20.00     0.065 A 
HETATM   13  C13 STL  7009       2.987  44.205 230.957  1.00 20.00     0.037 A 
HETATM   14  C14 STL  7009       1.762  43.933 230.257  1.00 20.00     0.014 A 
BRANCH  12  15
HETATM   15  O1  STL  7009       5.392  43.997 231.095  1.00 20.00    -0.361 OA
ATOM     16  H1  STL  7009       5.696  43.412 231.779  1.00  0.00     0.217 HD
ENDBRANCH  12  15
ENDBRANCH   8   9
ENDBRANCH   5   7
BRANCH   3  17
HETATM   17  O2  STL  7009      -3.642  43.239 225.213  1.00 20.00    -0.361 OA
ATOM     18  H2  STL  7009      -3.649  42.726 224.413  1.00  0.00     0.217 HD
ENDBRANCH   3  17
BRANCH   1  19
HETATM   19  O3  STL  7009      -5.051  40.325 228.794  1.00 20.00    -0.361 OA
ATOM     20  H3  STL  7009      -5.970  40.460 228.597  1.00  0.00     0.217 HD
ENDBRANCH   1  19
TORSDOF 5
ENDMDL
MODEL 2
REMARK VINA RESULT:      -7.0      0.346      2.069
REMARK  5 active torsions:
REMARK  status: ('A' for Active; 'I' for Inactive)
REMARK    1  A    between atoms: C1_1  and  O3_19 
REMARK    2  A    between atoms: C3_3  and  O2_17 
REMARK    3  A    between atoms: C5_5  and  C7_7 
REMARK    4  A    between atoms: C8_8  and  C9_9 
REMARK    5  A    between atoms: C12_12  and  O1_15 
ROOT
HETATM    1  C1  STL  7009      -3.172  42.698 226.007  1.00 20.00     0.069 A 
HETATM    2  C2  STL  7009      -4.237  41.971 226.639  1.00 20.00     0.073 A 
HETATM    3  C3  STL  7009      -4.064  41.446 227.961  1.00 20.00     0.069 A 
HETATM    4  C4  STL  7009      -2.814  41.628 228.649  1.00 20.00     0.048 A 
HETATM    5  C5  STL  7009      -1.744  42.350 228.027  1.00 20.00    -0.031 A 
HETATM    6  C6  STL  7009      -1.927  42.889 226.697  1.00 20.00     0.048 A 
ENDROOT
BRANCH   5   7
HETATM    7  C7  STL  7009      -0.492  42.504 228.757  1.00 20.00     0.012 C 
HETATM    8  C8  STL  7009       0.611  43.227 228.245  1.00 20.00     0.012 C 
BRANCH   8   9
HETATM    9  C9  STL  7009       1.855  43.344 228.983  1.00 20.00    -0.036 A 
HETATM   10  C10 STL  7009       3.091  42.803 228.462  1.00 20.00     0.014 A 
HETATM   11  C11 STL  7009       4.308  42.935 229.208  1.00 20.00     0.037 A 
HETATM   12  C12 STL  7009       4.305  43.606 230.474  1.00 20.00     0.065 A 
HETATM   13  C13 STL  7009       3.079  44.144 230.997  1.00 20.00     0.037 A 
HETATM   14  C14 STL  7009       1.858  44.013 230.251  1.00 20.00     0.014 A 
BRANCH  12  15
HETATM   15  O1  STL  7009       5.456  43.736 231.180  1.00 20.00    -0.361 OA
ATOM     16  H1  STL  7009       5.599  44.503 231.724  1.00  0.00     0.217 HD
ENDBRANCH  12  15
ENDBRANCH   8   9
ENDBRANCH   5   7
BRANCH   3  17
HETATM   17  O2  STL  7009      -5.075  40.754 228.562  1.00 20.00    -0.361 OA
ATOM     18  H2  STL  7009      -5.252  40.874 229.488  1.00  0.00     0.217 HD
ENDBRANCH   3  17
BRANCH   1  19
HETATM   19  O3  STL  7009      -3.343  43.190 224.772  1.00 20.00    -0.361 OA
ATOM     20  H3  STL  7009      -2.894  43.986 224.514  1.00  0.00     0.217 HD
ENDBRANCH   1  19
TORSDOF 5
ENDMDL
MODEL 3
REMARK VINA RESULT:      -6.8      2.088      7.677
REMARK  5 active torsions:
REMARK  status: ('A' for Active; 'I' for Inactive)
REMARK    1  A    between atoms: C1_1  and  O3_19 
REMARK    2  A    between atoms: C3_3  and  O2_17 
REMARK    3  A    between atoms: C5_5  and  C7_7 
REMARK    4  A    between atoms: C8_8  and  C9_9 
REMARK    5  A    between atoms: C12_12  and  O1_15 
ROOT
HETATM    1  C1  STL  7009       1.170  43.919 230.070  1.00 20.00     0.069 A 
HETATM    2  C2  STL  7009       2.301  43.281 229.456  1.00 20.00     0.073 A 
HETATM    3  C3  STL  7009       2.122  42.471 228.286  1.00 20.00     0.069 A 
HETATM    4  C4  STL  7009       0.806  42.279 227.740  1.00 20.00     0.048 A 
HETATM    5  C5  STL  7009      -0.328  42.909 228.346  1.00 20.00    -0.031 A 
HETATM    6  C6  STL  7009      -0.143  43.735 229.519  1.00 20.00     0.048 A 
ENDROOT
BRANCH   5   7
HETATM    7  C7  STL  7009      -1.645  42.680 227.764  1.00 20.00     0.012 C 
HETATM    8  C8  STL  7009      -2.582  41.776 228.317  1.00 20.00     0.012 C 
BRANCH   8   9
HETATM    9  C9  STL  7009      -3.877  41.550 227.703  1.00 20.00    -0.036 A 
HETATM   10  C10 STL  7009      -4.753  40.494 228.164  1.00 20.00     0.014 A 
HETATM   11  C11 STL  7009      -6.030  40.294 227.544  1.00 20.00     0.037 A 
HETATM   12  C12 STL  7009      -6.445  41.138 226.464  1.00 20.00     0.065 A 
HETATM   13  C13 STL  7009      -5.578  42.187 226.001  1.00 20.00     0.037 A 
HETATM   14  C14 STL  7009      -4.298  42.391 226.621  1.00 20.00     0.014 A 
BRANCH  12  15
HETATM   15  O1  STL  7009      -7.654  40.954 225.877  1.00 20.00    -0.361 OA
ATOM     16  H1  STL  7009      -8.066  41.662 225.396  1.00  0.00     0.217 HD
ENDBRANCH  12  15
ENDBRANCH   8   9
ENDBRANCH   5   7
BRANCH   3  17
HETATM   17  O2  STL  7009       3.196  41.864 227.702  1.00 20.00    -0.361 OA
ATOM     18  H2  STL  7009       3.107  41.451 226.851  1.00  0.00     0.217 HD
ENDBRANCH   3  17
BRANCH   1  19
HETATM   19  O3  STL  7009       1.347  44.679 231.160  1.00 20.00    -0.361 OA
ATOM     20  H3  STL  7009       0.962  44.414 231.987  1.00  0.00     0.217 HD
ENDBRANCH   1  19
TORSDOF 5
ENDMDL
MODEL 4
REMARK VINA RESULT:      -6.8      2.053      7.715
REMARK  5 active torsions:
REMARK  status: ('A' for Active; 'I' for Inactive)
REMARK    1  A    between atoms: C1_1  and  O3_19 
REMARK    2  A    between atoms: C3_3  and  O2_17 
REMARK    3  A    between atoms: C5_5  and  C7_7 
REMARK    4  A    between atoms: C8_8  and  C9_9 
REMARK    5  A    between atoms: C12_12  and  O1_15 
ROOT
HETATM    1  C1  STL  7009       2.161  42.362 228.271  1.00 20.00     0.069 A 
HETATM    2  C2  STL  7009       2.455  43.262 229.351  1.00 20.00     0.073 A 
HETATM    3  C3  STL  7009       1.390  43.830 230.124  1.00 20.00     0.069 A 
HETATM    4  C4  STL  7009       0.023  43.515 229.805  1.00 20.00     0.048 A 
HETATM    5  C5  STL  7009      -0.281  42.620 228.729  1.00 20.00    -0.031 A 
HETATM    6  C6  STL  7009       0.797  42.040 227.959  1.00 20.00     0.048 A 
ENDROOT
BRANCH   5   7
HETATM    7  C7  STL  7009      -1.680  42.336 228.435  1.00 20.00     0.012 C 
HETATM    8  C8  STL  7009      -2.283  42.651 227.195  1.00 20.00     0.012 C 
BRANCH   8   9
HETATM    9  C9  STL  7009      -3.685  42.378 226.937  1.00 20.00    -0.036 A 
HETATM   10  C10 STL  7009      -4.490  43.273 226.134  1.00 20.00     0.014 A 
HETATM   11  C11 STL  7009      -5.871  42.979 225.890  1.00 20.00     0.037 A 
HETATM   12  C12 STL  7009      -6.462  41.796 226.441  1.00 20.00     0.065 A 
HETATM   13  C13 STL  7009      -5.668  40.904 227.241  1.00 20.00     0.037 A 
HETATM   14  C14 STL  7009      -4.283  41.196 227.487  1.00 20.00     0.014 A 
BRANCH  12  15
HETATM   15  O1  STL  7009      -7.768  41.513 226.209  1.00 20.00    -0.361 OA
ATOM     16  H1  STL  7009      -8.431  41.758 226.844  1.00  0.00     0.217 HD
ENDBRANCH  12  15
ENDBRANCH   8   9
ENDBRANCH   5   7
BRANCH   3  17
HETATM   17  O2  STL  7009       1.668  44.686 231.150  1.00 20.00    -0.361 OA
ATOM     18  H2  STL  7009       1.922  45.584 230.967  1.00  0.00     0.217 HD
ENDBRANCH   3  17
BRANCH   1  19
HETATM   19  O3  STL  7009       3.163  41.831 227.556  1.00 20.00    -0.361 OA
ATOM     20  H3  STL  7009       3.257  42.053 226.637  1.00  0.00     0.217 HD
ENDBRANCH   1  19
TORSDOF 5
ENDMDL
MODEL 5
REMARK VINA RESULT:      -6.6      0.725      2.464
REMARK  5 active torsions:
REMARK  status: ('A' for Active; 'I' for Inactive)
REMARK    1  A    between atoms: C1_1  and  O3_19 
REMARK    2  A    between atoms: C3_3  and  O2_17 
REMARK    3  A    between atoms: C5_5  and  C7_7 
REMARK    4  A    between atoms: C8_8  and  C9_9 
REMARK    5  A    between atoms: C12_12  and  O1_15 
ROOT
HETATM    1  C1  STL  7009      -3.986  41.911 226.958  1.00 20.00     0.069 A 
HETATM    2  C2  STL  7009      -4.588  40.775 227.598  1.00 20.00     0.073 A 
HETATM    3  C3  STL  7009      -3.981  40.200 228.763  1.00 20.00     0.069 A 
HETATM    4  C4  STL  7009      -2.757  40.749 229.280  1.00 20.00     0.048 A 
HETATM    5  C5  STL  7009      -2.147  41.881 228.649  1.00 20.00    -0.031 A 
HETATM    6  C6  STL  7009      -2.769  42.465 227.480  1.00 20.00     0.048 A 
ENDROOT
BRANCH   5   7
HETATM    7  C7  STL  7009      -0.902  42.400 229.201  1.00 20.00     0.012 C 
HETATM    8  C8  STL  7009       0.310  42.424 228.472  1.00 20.00     0.012 C 
BRANCH   8   9
HETATM    9  C9  STL  7009       1.541  42.924 229.055  1.00 20.00    -0.036 A 
HETATM   10  C10 STL  7009       1.526  43.800 230.206  1.00 20.00     0.014 A 
HETATM   11  C11 STL  7009       2.757  44.277 230.765  1.00 20.00     0.037 A 
HETATM   12  C12 STL  7009       4.008  43.888 230.187  1.00 20.00     0.065 A 
HETATM   13  C13 STL  7009       4.028  43.018 229.042  1.00 20.00     0.037 A 
HETATM   14  C14 STL  7009       2.797  42.538 228.479  1.00 20.00     0.014 A 
BRANCH  12  15
HETATM   15  O1  STL  7009       5.174  44.334 230.717  1.00 20.00    -0.361 OA
ATOM     16  H1  STL  7009       5.699  44.973 230.249  1.00  0.00     0.217 HD
ENDBRANCH  12  15
ENDBRANCH   8   9
ENDBRANCH   5   7
BRANCH   3  17
HETATM   17  O2  STL  7009      -4.552  39.120 229.371  1.00 20.00    -0.361 OA
ATOM     18  H2  STL  7009      -4.851  39.181 230.271  1.00  0.00     0.217 HD
ENDBRANCH   3  17
BRANCH   1  19
HETATM   19  O3  STL  7009      -4.563  42.446 225.872  1.00 20.00    -0.361 OA
ATOM     20  H3  STL  7009      -5.441  42.803 225.932  1.00  0.00     0.217 HD
ENDBRANCH   1  19
TORSDOF 5
ENDMDL
MODEL 6
REMARK VINA RESULT:      -6.5      8.405     10.808
REMARK  5 active torsions:
REMARK  status: ('A' for Active; 'I' for Inactive)
REMARK    1  A    between atoms: C1_1  and  O3_19 
REMARK    2  A    between atoms: C3_3  and  O2_17 
REMARK    3  A    between atoms: C5_5  and  C7_7 
REMARK    4  A    between atoms: C8_8  and  C9_9 
REMARK    5  A    between atoms: C12_12  and  O1_15 
ROOT
HETATM    1  C1  STL  7009       1.029  39.115 238.281  1.00 20.00     0.069 A 
HETATM    2  C2  STL  7009       2.234  38.667 238.921  1.00 20.00     0.073 A 
HETATM    3  C3  STL  7009       3.192  37.891 238.190  1.00 20.00     0.069 A 
HETATM    4  C4  STL  7009       2.936  37.540 236.819  1.00 20.00     0.048 A 
HETATM    5  C5  STL  7009       1.736  37.980 236.171  1.00 20.00    -0.031 A 
HETATM    6  C6  STL  7009       0.778  38.774 236.909  1.00 20.00     0.048 A 
ENDROOT
BRANCH   5   7
HETATM    7  C7  STL  7009       1.513  37.595 234.784  1.00 20.00     0.012 C 
HETATM    8  C8  STL  7009       0.840  36.407 234.415  1.00 20.00     0.012 C 
BRANCH   8   9
HETATM    9  C9  STL  7009       0.653  36.036 233.024  1.00 20.00    -0.036 A 
HETATM   10  C10 STL  7009       1.097  36.897 231.950  1.00 20.00     0.014 A 
HETATM   11  C11 STL  7009       0.904  36.506 230.585  1.00 20.00     0.037 A 
HETATM   12  C12 STL  7009       0.271  35.258 230.278  1.00 20.00     0.065 A 
HETATM   13  C13 STL  7009      -0.173  34.399 231.341  1.00 20.00     0.037 A 
HETATM   14  C14 STL  7009       0.019  34.788 232.710  1.00 20.00     0.014 A 
BRANCH  12  15
HETATM   15  O1  STL  7009       0.090  34.883 228.986  1.00 20.00    -0.361 OA
ATOM     16  H1  STL  7009       0.188  35.517 228.286  1.00  0.00     0.217 HD
ENDBRANCH  12  15
ENDBRANCH   8   9
ENDBRANCH   5   7
BRANCH   3  17
HETATM   17  O2  STL  7009       4.336  37.464 238.798  1.00 20.00    -0.361 OA
ATOM     18  H2  STL  7009       4.444  37.563 239.737  1.00  0.00     0.217 HD
ENDBRANCH   3  17
BRANCH   1  19
HETATM   19  O3  STL  7009       0.142  39.846 238.970  1.00 20.00    -0.361 OA
ATOM     20  H3  STL  7009      -0.028  39.645 239.883  1.00  0.00     0.217 HD
ENDBRANCH   1  19
TORSDOF 5
ENDMDL
MODEL 7
REMARK VINA RESULT:      -6.5      7.796     10.362
REMARK  5 active torsions:
REMARK  status: ('A' for Active; 'I' for Inactive)
REMARK    1  A    between atoms: C1_1  and  O3_19 
REMARK    2  A    between atoms: C3_3  and  O2_17 
REMARK    3  A    between atoms: C5_5  and  C7_7 
REMARK    4  A    between atoms: C8_8  and  C9_9 
REMARK    5  A    between atoms: C12_12  and  O1_15 
ROOT
HETATM    1  C1  STL  7009       3.201  37.829 238.198  1.00 20.00     0.069 A 
HETATM    2  C2  STL  7009       2.233  38.588 238.938  1.00 20.00     0.073 A 
HETATM    3  C3  STL  7009       1.065  39.099 238.282  1.00 20.00     0.069 A 
HETATM    4  C4  STL  7009       0.873  38.870 236.876  1.00 20.00     0.048 A 
HETATM    5  C5  STL  7009       1.834  38.116 236.127  1.00 20.00    -0.031 A 
HETATM    6  C6  STL  7009       3.005  37.591 236.795  1.00 20.00     0.048 A 
ENDROOT
BRANCH   5   7
HETATM    7  C7  STL  7009       1.605  37.915 234.702  1.00 20.00     0.012 C 
HETATM    8  C8  STL  7009       0.320  37.685 234.156  1.00 20.00     0.012 C 
BRANCH   8   9
HETATM    9  C9  STL  7009       0.123  37.464 232.736  1.00 20.00    -0.036 A 
HETATM   10  C10 STL  7009      -1.005  38.037 232.035  1.00 20.00     0.014 A 
HETATM   11  C11 STL  7009      -1.175  37.808 230.631  1.00 20.00     0.037 A 
HETATM   12  C12 STL  7009      -0.227  37.008 229.913  1.00 20.00     0.065 A 
HETATM   13  C13 STL  7009       0.895  36.435 230.604  1.00 20.00     0.037 A 
HETATM   14  C14 STL  7009       1.068  36.663 232.012  1.00 20.00     0.014 A 
BRANCH  12  15
HETATM   15  O1  STL  7009      -0.383  36.793 228.583  1.00 20.00    -0.361 OA
ATOM     16  H1  STL  7009      -0.427  37.527 227.981  1.00  0.00     0.217 HD
ENDBRANCH  12  15
ENDBRANCH   8   9
ENDBRANCH   5   7
BRANCH   3  17
HETATM   17  O2  STL  7009       0.145  39.821 238.985  1.00 20.00    -0.361 OA
ATOM     18  H2  STL  7009      -0.775  39.586 238.949  1.00  0.00     0.217 HD
ENDBRANCH   3  17
BRANCH   1  19
HETATM   19  O3  STL  7009       4.288  37.349 238.820  1.00 20.00    -0.361 OA
ATOM     20  H3  STL  7009       4.338  37.373 239.769  1.00  0.00     0.217 HD
ENDBRANCH   1  19
TORSDOF 5
ENDMDL
MODEL 8
REMARK VINA RESULT:      -6.3      7.944      8.700
REMARK  5 active torsions:
REMARK  status: ('A' for Active; 'I' for Inactive)
REMARK    1  A    between atoms: C1_1  and  O3_19 
REMARK    2  A    between atoms: C3_3  and  O2_17 
REMARK    3  A    between atoms: C5_5  and  C7_7 
REMARK    4  A    between atoms: C8_8  and  C9_9 
REMARK    5  A    between atoms: C12_12  and  O1_15 
ROOT
HETATM    1  C1  STL  7009      -1.300  38.229 231.721  1.00 20.00     0.069 A 
HETATM    2  C2  STL  7009      -0.650  37.641 230.582  1.00 20.00     0.073 A 
HETATM    3  C3  STL  7009       0.546  36.870 230.755  1.00 20.00     0.069 A 
HETATM    4  C4  STL  7009       1.110  36.702 232.067  1.00 20.00     0.048 A 
HETATM    5  C5  STL  7009       0.471  37.286 233.209  1.00 20.00    -0.031 A 
HETATM    6  C6  STL  7009      -0.742  38.053 233.032  1.00 20.00     0.048 A 
ENDROOT
BRANCH   5   7
HETATM    7  C7  STL  7009       1.081  37.098 234.519  1.00 20.00     0.012 C 
HETATM    8  C8  STL  7009       1.794  38.120 235.188  1.00 20.00     0.012 C 
BRANCH   8   9
HETATM    9  C9  STL  7009       2.412  37.898 236.482  1.00 20.00    -0.036 A 
HETATM   10  C10 STL  7009       2.497  38.956 237.466  1.00 20.00     0.014 A 
HETATM   11  C11 STL  7009       3.109  38.710 238.738  1.00 20.00     0.037 A 
HETATM   12  C12 STL  7009       3.640  37.415 239.042  1.00 20.00     0.065 A 
HETATM   13  C13 STL  7009       3.560  36.361 238.068  1.00 20.00     0.037 A 
HETATM   14  C14 STL  7009       2.947  36.604 236.792  1.00 20.00     0.014 A 
BRANCH  12  15
HETATM   15  O1  STL  7009       4.216  37.178 240.247  1.00 20.00    -0.361 OA
ATOM     16  H1  STL  7009       4.362  37.893 240.857  1.00  0.00     0.217 HD
ENDBRANCH  12  15
ENDBRANCH   8   9
ENDBRANCH   5   7
BRANCH   3  17
HETATM   17  O2  STL  7009       1.164  36.312 229.673  1.00 20.00    -0.361 OA
ATOM     18  H2  STL  7009       1.384  35.388 229.673  1.00  0.00     0.217 HD
ENDBRANCH   3  17
BRANCH   1  19
HETATM   19  O3  STL  7009      -2.421  38.944 231.552  1.00 20.00    -0.361 OA
ATOM     20  H3  STL  7009      -3.241  38.626 231.910  1.00  0.00     0.217 HD
ENDBRANCH   1  19
TORSDOF 5
ENDMDL
MODEL 9
REMARK VINA RESULT:      -6.1      8.122     10.829
REMARK  5 active torsions:
REMARK  status: ('A' for Active; 'I' for Inactive)
REMARK    1  A    between atoms: C1_1  and  O3_19 
REMARK    2  A    between atoms: C3_3  and  O2_17 
REMARK    3  A    between atoms: C5_5  and  C7_7 
REMARK    4  A    between atoms: C8_8  and  C9_9 
REMARK    5  A    between atoms: C12_12  and  O1_15 
ROOT
HETATM    1  C1  STL  7009       3.367  36.057 238.045  1.00 20.00     0.069 A 
HETATM    2  C2  STL  7009       3.782  37.189 238.826  1.00 20.00     0.073 A 
HETATM    3  C3  STL  7009       3.520  38.519 238.359  1.00 20.00     0.069 A 
HETATM    4  C4  STL  7009       2.861  38.722 237.098  1.00 20.00     0.048 A 
HETATM    5  C5  STL  7009       2.444  37.600 236.310  1.00 20.00    -0.031 A 
HETATM    6  C6  STL  7009       2.699  36.259 236.790  1.00 20.00     0.048 A 
ENDROOT
BRANCH   5   7
HETATM    7  C7  STL  7009       1.787  37.850 235.034  1.00 20.00     0.012 C 
HETATM    8  C8  STL  7009       1.074  36.853 234.328  1.00 20.00     0.012 C 
BRANCH   8   9
HETATM    9  C9  STL  7009       0.449  37.124 233.047  1.00 20.00    -0.036 A 
HETATM   10  C10 STL  7009       1.006  36.609 231.815  1.00 20.00     0.014 A 
HETATM   11  C11 STL  7009       0.367  36.887 230.563  1.00 20.00     0.037 A 
HETATM   12  C12 STL  7009      -0.827  37.677 230.525  1.00 20.00     0.065 A 
HETATM   13  C13 STL  7009      -1.383  38.193 231.745  1.00 20.00     0.037 A 
HETATM   14  C14 STL  7009      -0.746  37.916 233.003  1.00 20.00     0.014 A 
BRANCH  12  15
HETATM   15  O1  STL  7009      -1.436  37.939 229.341  1.00 20.00    -0.361 OA
ATOM     16  H1  STL  7009      -2.023  37.300 228.954  1.00  0.00     0.217 HD
ENDBRANCH  12  15
ENDBRANCH   8   9
ENDBRANCH   5   7
BRANCH   3  17
HETATM   17  O2  STL  7009       3.915  39.595 239.100  1.00 20.00    -0.361 OA
ATOM     18  H2  STL  7009       3.622  39.690 239.999  1.00  0.00     0.217 HD
ENDBRANCH   3  17
BRANCH   1  19
HETATM   19  O3  STL  7009       3.610  34.816 238.491  1.00 20.00    -0.361 OA
ATOM     20  H3  STL  7009       2.900  34.294 238.845  1.00  0.00     0.217 HD
ENDBRANCH   1  19
TORSDOF 5
ENDMDL
