MODEL 1
REMARK VINA RESULT:      -6.9      0.000      0.000
REMARK  17 active torsions:
REMARK  status: ('A' for Active; 'I' for Inactive)
REMARK    1  A    between atoms: C1_1  and  O9_42 
REMARK    2  A    between atoms: C2_2  and  O6_36 
REMARK    3  A    between atoms: C3_3  and  O7_38 
REMARK    4  A    between atoms: C4_4  and  O8_40 
REMARK    5  A    between atoms: C5_5  and  C6_6 
REMARK    6  A    between atoms: C6_6  and  N1_19 
REMARK    7  A    between atoms: C7_7  and  N3_27 
REMARK    8  A    between atoms: C8_8  and  O11_45 
REMARK    9  A    between atoms: C9_9  and  O10_43 
REMARK   10  A    between atoms: C10_10  and  O9_42 
REMARK   11  A    between atoms: C11_11  and  N2_23 
REMARK   12  A    between atoms: C13_13  and  O11_45 
REMARK   13  A    between atoms: C14_14  and  O13_47 
REMARK   14  A    between atoms: C15_15  and  N4_31 
REMARK   15  A    between atoms: C16_16  and  O14_49 
REMARK   16  A    between atoms: C17_17  and  C18_18 
REMARK   17  A    between atoms: C18_18  and  O15_51 
ROOT
HETATM    1  C7  KAN  4699      -4.002  40.810 227.814  1.00 20.00     0.217 C 
HETATM    2  C8  KAN  4699      -3.769  42.232 227.282  1.00 20.00     0.186 C 
HETATM    3  C9  KAN  4699      -2.251  42.525 227.305  1.00 20.00     0.180 C 
HETATM    4  C10 KAN  4699      -1.730  42.422 228.758  1.00 20.00     0.186 C 
HETATM    5  C11 KAN  4699      -1.982  40.972 229.275  1.00 20.00     0.217 C 
HETATM    6  C12 KAN  4699      -3.497  40.656 229.227  1.00 20.00     0.071 C 
ENDROOT
BRANCH   2   7
HETATM    7  O11 KAN  4699      -4.240  42.352 225.926  1.00 20.00    -0.349 OA
BRANCH   7   8
HETATM    8  C13 KAN  4699      -3.703  41.391 224.953  1.00 20.00     0.291 C 
HETATM    9  O12 KAN  4699      -4.751  40.542 224.504  1.00 20.00    -0.349 OA
HETATM   10  C17 KAN  4699      -5.892  41.123 223.857  1.00 20.00     0.179 C 
HETATM   11  C16 KAN  4699      -5.419  41.799 222.599  1.00 20.00     0.182 C 
HETATM   12  C15 KAN  4699      -4.361  42.856 223.036  1.00 20.00     0.248 C 
HETATM   13  C14 KAN  4699      -3.181  42.157 223.745  1.00 20.00     0.206 C 
BRANCH  10  14
HETATM   14  C18 KAN  4699      -6.965  40.031 223.652  1.00 20.00     0.198 C 
BRANCH  14  15
HETATM   15  O15 KAN  4699      -8.278  40.656 223.560  1.00 20.00    -0.398 OA
ATOM     16  H15 KAN  4699      -8.220  41.556 223.860  1.00  0.00     0.209 HD
ENDBRANCH  14  15
ENDBRANCH  10  14
BRANCH  11  17
HETATM   17  O14 KAN  4699      -6.506  42.443 221.980  1.00 20.00    -0.391 OA
ATOM     18  H14 KAN  4699      -6.628  42.095 221.105  1.00  0.00     0.210 HD
ENDBRANCH  11  17
BRANCH  12  19
HETATM   19  N4  KAN  4699      -3.940  43.713 221.922  1.00 20.00    -0.070 N 
ATOM     20  H43 KAN  4699      -3.544  43.156 221.165  1.00  0.00     0.274 HD
ATOM     21  H42 KAN  4699      -4.748  44.103 221.438  1.00  0.00     0.274 HD
ATOM     22  H41 KAN  4699      -3.295  44.451 222.206  1.00  0.00     0.274 HD
ENDBRANCH  12  19
BRANCH  13  23
HETATM   23  O13 KAN  4699      -2.243  43.109 224.162  1.00 20.00    -0.388 OA
ATOM     24  H13 KAN  4699      -2.592  43.982 224.024  1.00  0.00     0.210 HD
ENDBRANCH  13  23
ENDBRANCH   7   8
ENDBRANCH   2   7
BRANCH   1  25
HETATM   25  N3  KAN  4699      -5.490  40.494 227.708  1.00 20.00    -0.072 N 
ATOM     26  H33 KAN  4699      -5.723  39.634 228.203  1.00  0.00     0.274 HD
ATOM     27  H32 KAN  4699      -6.048  41.149 228.256  1.00  0.00     0.274 HD
ATOM     28  H31 KAN  4699      -5.801  40.462 226.737  1.00  0.00     0.274 HD
ENDBRANCH   1  25
BRANCH   3  29
HETATM   29  O10 KAN  4699      -2.061  43.909 226.802  1.00 20.00    -0.390 OA
ATOM     30  H10 KAN  4699      -1.234  43.970 226.339  1.00  0.00     0.210 HD
ENDBRANCH   3  29
BRANCH   4  31
HETATM   31  O9  KAN  4699      -0.290  42.470 228.746  1.00 20.00    -0.349 OA
BRANCH  31  32
HETATM   32  C1  KAN  4699       0.430  42.938 227.589  1.00 20.00     0.292 C 
HETATM   33  O5  KAN  4699       0.429  44.333 227.647  1.00 20.00    -0.349 OA
HETATM   34  C5  KAN  4699       1.174  44.986 228.681  1.00 20.00     0.181 C 
HETATM   35  C4  KAN  4699       2.561  44.441 228.862  1.00 20.00     0.180 C 
HETATM   36  C3  KAN  4699       2.444  42.936 228.951  1.00 20.00     0.183 C 
HETATM   37  C2  KAN  4699       1.855  42.406 227.646  1.00 20.00     0.204 C 
BRANCH  34  38
HETATM   38  C6  KAN  4699       1.190  46.530 228.503  1.00 20.00     0.264 C 
BRANCH  38  39
HETATM   39  N1  KAN  4699       0.816  47.133 229.833  1.00 20.00    -0.077 N 
ATOM     40  H13 KAN  4699       0.052  47.806 229.766  1.00  0.00     0.274 HD
ATOM     41  H12 KAN  4699       0.354  46.472 230.456  1.00  0.00     0.274 HD
ATOM     42  H11 KAN  4699       1.667  47.531 230.231  1.00  0.00     0.274 HD
ENDBRANCH  38  39
ENDBRANCH  34  38
BRANCH  35  43
HETATM   43  O8  KAN  4699       3.029  44.974 230.086  1.00 20.00    -0.390 OA
ATOM     44  H8  KAN  4699       3.255  44.275 230.689  1.00  0.00     0.210 HD
ENDBRANCH  35  43
BRANCH  36  45
HETATM   45  O7  KAN  4699       3.786  42.415 229.161  1.00 20.00    -0.390 OA
ATOM     46  H7  KAN  4699       4.185  42.811 229.926  1.00  0.00     0.210 HD
ENDBRANCH  36  45
BRANCH  37  47
HETATM   47  O6  KAN  4699       1.803  40.955 227.690  1.00 20.00    -0.388 OA
ATOM     48  H6  KAN  4699       1.020  40.697 228.163  1.00  0.00     0.210 HD
ENDBRANCH  37  47
ENDBRANCH  31  32
ENDBRANCH   4  31
BRANCH   5  49
HETATM   49  N2  KAN  4699      -1.499  40.891 230.664  1.00 20.00    -0.072 N 
ATOM     50  H23 KAN  4699      -1.265  39.939 230.945  1.00  0.00     0.274 HD
ATOM     51  H22 KAN  4699      -0.573  41.301 230.783  1.00  0.00     0.274 HD
ATOM     52  H21 KAN  4699      -2.200  41.319 231.269  1.00  0.00     0.274 HD
ENDBRANCH   5  49
TORSDOF 17
ENDMDL
MODEL 2
REMARK VINA RESULT:      -6.3      5.041      7.581
REMARK  17 active torsions:
REMARK  status: ('A' for Active; 'I' for Inactive)
REMARK    1  A    between atoms: C1_1  and  O9_42 
REMARK    2  A    between atoms: C2_2  and  O6_36 
REMARK    3  A    between atoms: C3_3  and  O7_38 
REMARK    4  A    between atoms: C4_4  and  O8_40 
REMARK    5  A    between atoms: C5_5  and  C6_6 
REMARK    6  A    between atoms: C6_6  and  N1_19 
REMARK    7  A    between atoms: C7_7  and  N3_27 
REMARK    8  A    between atoms: C8_8  and  O11_45 
REMARK    9  A    between atoms: C9_9  and  O10_43 
REMARK   10  A    between atoms: C10_10  and  O9_42 
REMARK   11  A    between atoms: C11_11  and  N2_23 
REMARK   12  A    between atoms: C13_13  and  O11_45 
REMARK   13  A    between atoms: C14_14  and  O13_47 
REMARK   14  A    between atoms: C15_15  and  N4_31 
REMARK   15  A    between atoms: C16_16  and  O14_49 
REMARK   16  A    between atoms: C17_17  and  C18_18 
REMARK   17  A    between atoms: C18_18  and  O15_51 
ROOT
HETATM    1  C7  KAN  4699      -3.106  38.534 228.979  1.00 20.00     0.217 C 
HETATM    2  C8  KAN  4699      -2.671  39.673 229.914  1.00 20.00     0.186 C 
HETATM    3  C9  KAN  4699      -1.794  39.081 231.040  1.00 20.00     0.180 C 
HETATM    4  C10 KAN  4699      -2.614  38.040 231.837  1.00 20.00     0.186 C 
HETATM    5  C11 KAN  4699      -3.046  36.898 230.866  1.00 20.00     0.217 C 
HETATM    6  C12 KAN  4699      -3.900  37.484 229.716  1.00 20.00     0.071 C 
ENDROOT
BRANCH   2   7
HETATM    7  O11 KAN  4699      -1.899  40.653 229.195  1.00 20.00    -0.349 OA
BRANCH   7   8
HETATM    8  C13 KAN  4699      -2.265  42.061 229.397  1.00 20.00     0.291 C 
HETATM    9  O12 KAN  4699      -1.146  42.769 229.914  1.00 20.00    -0.349 OA
HETATM   10  C17 KAN  4699       0.068  42.809 229.150  1.00 20.00     0.179 C 
HETATM   11  C16 KAN  4699      -0.225  43.509 227.850  1.00 20.00     0.182 C 
HETATM   12  C15 KAN  4699      -1.356  42.694 227.155  1.00 20.00     0.248 C 
HETATM   13  C14 KAN  4699      -2.615  42.675 228.048  1.00 20.00     0.206 C 
BRANCH  10  14
HETATM   14  C18 KAN  4699       1.181  43.454 230.005  1.00 20.00     0.198 C 
BRANCH  14  15
HETATM   15  O15 KAN  4699       0.623  44.568 230.761  1.00 20.00    -0.398 OA
ATOM     16  H15 KAN  4699       0.676  45.360 230.239  1.00  0.00     0.209 HD
ENDBRANCH  14  15
ENDBRANCH  10  14
BRANCH  11  17
HETATM   17  O14 KAN  4699       0.930  43.498 227.046  1.00 20.00    -0.391 OA
ATOM     18  H14 KAN  4699       0.781  42.959 226.278  1.00  0.00     0.210 HD
ENDBRANCH  11  17
BRANCH  12  19
HETATM   19  N4  KAN  4699      -1.623  43.166 225.792  1.00 20.00    -0.070 N 
ATOM     20  H43 KAN  4699      -0.918  43.841 225.496  1.00  0.00     0.274 HD
ATOM     21  H42 KAN  4699      -1.444  42.428 225.111  1.00  0.00     0.274 HD
ATOM     22  H41 KAN  4699      -2.562  43.548 225.676  1.00  0.00     0.274 HD
ENDBRANCH  12  19
BRANCH  13  23
HETATM   23  O13 KAN  4699      -3.623  41.920 227.436  1.00 20.00    -0.388 OA
ATOM     24  H13 KAN  4699      -3.344  41.016 227.362  1.00  0.00     0.210 HD
ENDBRANCH  13  23
ENDBRANCH   7   8
ENDBRANCH   2   7
BRANCH   1  25
HETATM   25  N3  KAN  4699      -3.898  39.134 227.824  1.00 20.00    -0.072 N 
ATOM     26  H33 KAN  4699      -4.369  39.995 228.104  1.00  0.00     0.274 HD
ATOM     27  H32 KAN  4699      -3.280  39.516 227.108  1.00  0.00     0.274 HD
ATOM     28  H31 KAN  4699      -4.555  38.462 227.427  1.00  0.00     0.274 HD
ENDBRANCH   1  25
BRANCH   3  29
HETATM   29  O10 KAN  4699      -1.405  40.202 231.932  1.00 20.00    -0.390 OA
ATOM     30  H10 KAN  4699      -1.552  39.956 232.838  1.00  0.00     0.210 HD
ENDBRANCH   3  29
BRANCH   4  31
HETATM   31  O9  KAN  4699      -1.734  37.332 232.732  1.00 20.00    -0.349 OA
BRANCH  31  32
HETATM   32  C1  KAN  4699      -0.317  37.260 232.480  1.00 20.00     0.292 C 
HETATM   33  O5  KAN  4699       0.309  38.050 233.446  1.00 20.00    -0.349 OA
HETATM   34  C5  KAN  4699       0.280  37.626 234.815  1.00 20.00     0.181 C 
HETATM   35  C4  KAN  4699       0.617  36.176 235.005  1.00 20.00     0.180 C 
HETATM   36  C3  KAN  4699      -0.227  35.387 234.028  1.00 20.00     0.183 C 
HETATM   37  C2  KAN  4699       0.134  35.812 232.606  1.00 20.00     0.204 C 
BRANCH  34  38
HETATM   38  C6  KAN  4699       1.152  38.535 235.725  1.00 20.00     0.264 C 
BRANCH  38  39
HETATM   39  N1  KAN  4699       2.541  37.950 235.732  1.00 20.00    -0.077 N 
ATOM     40  H13 KAN  4699       3.169  38.418 236.386  1.00  0.00     0.274 HD
ATOM     41  H12 KAN  4699       2.583  37.022 236.153  1.00  0.00     0.274 HD
ATOM     42  H11 KAN  4699       2.879  37.969 234.770  1.00  0.00     0.274 HD
ENDBRANCH  38  39
ENDBRANCH  34  38
BRANCH  35  43
HETATM   43  O8  KAN  4699       0.252  35.866 236.336  1.00 20.00    -0.390 OA
ATOM     44  H8  KAN  4699       0.141  36.661 236.844  1.00  0.00     0.210 HD
ENDBRANCH  35  43
BRANCH  36  45
HETATM   45  O7  KAN  4699       0.078  33.981 234.239  1.00 20.00    -0.390 OA
ATOM     46  H7  KAN  4699      -0.522  33.429 233.752  1.00  0.00     0.210 HD
ENDBRANCH  36  45
BRANCH  37  47
HETATM   47  O6  KAN  4699      -0.618  35.012 231.655  1.00 20.00    -0.388 OA
ATOM     48  H6  KAN  4699      -0.290  34.121 231.686  1.00  0.00     0.210 HD
ENDBRANCH  37  47
ENDBRANCH  31  32
ENDBRANCH   4  31
BRANCH   5  49
HETATM   49  N2  KAN  4699      -3.841  35.923 231.633  1.00 20.00    -0.072 N 
ATOM     50  H23 KAN  4699      -4.597  35.513 231.084  1.00  0.00     0.274 HD
ATOM     51  H22 KAN  4699      -3.329  35.062 231.825  1.00  0.00     0.274 HD
ATOM     52  H21 KAN  4699      -4.174  36.382 232.480  1.00  0.00     0.274 HD
ENDBRANCH   5  49
TORSDOF 17
ENDMDL
MODEL 3
REMARK VINA RESULT:      -6.2      8.701     10.939
REMARK  17 active torsions:
REMARK  status: ('A' for Active; 'I' for Inactive)
REMARK    1  A    between atoms: C1_1  and  O9_42 
REMARK    2  A    between atoms: C2_2  and  O6_36 
REMARK    3  A    between atoms: C3_3  and  O7_38 
REMARK    4  A    between atoms: C4_4  and  O8_40 
REMARK    5  A    between atoms: C5_5  and  C6_6 
REMARK    6  A    between atoms: C6_6  and  N1_19 
REMARK    7  A    between atoms: C7_7  and  N3_27 
REMARK    8  A    between atoms: C8_8  and  O11_45 
REMARK    9  A    between atoms: C9_9  and  O10_43 
REMARK   10  A    between atoms: C10_10  and  O9_42 
REMARK   11  A    between atoms: C11_11  and  N2_23 
REMARK   12  A    between atoms: C13_13  and  O11_45 
REMARK   13  A    between atoms: C14_14  and  O13_47 
REMARK   14  A    between atoms: C15_15  and  N4_31 
REMARK   15  A    between atoms: C16_16  and  O14_49 
REMARK   16  A    between atoms: C17_17  and  C18_18 
REMARK   17  A    between atoms: C18_18  and  O15_51 
ROOT
HETATM    1  C7  KAN  4699       0.155  33.984 233.572  1.00 20.00     0.217 C 
HETATM    2  C8  KAN  4699      -0.747  35.052 234.210  1.00 20.00     0.186 C 
HETATM    3  C9  KAN  4699       0.022  35.714 235.376  1.00 20.00     0.180 C 
HETATM    4  C10 KAN  4699       0.381  34.640 236.430  1.00 20.00     0.186 C 
HETATM    5  C11 KAN  4699       1.293  33.568 235.757  1.00 20.00     0.217 C 
HETATM    6  C12 KAN  4699       0.544  32.919 234.567  1.00 20.00     0.071 C 
ENDROOT
BRANCH   2   7
HETATM    7  O11 KAN  4699      -1.090  36.068 233.249  1.00 20.00    -0.349 OA
BRANCH   7   8
HETATM    8  C13 KAN  4699       0.011  36.900 232.746  1.00 20.00     0.291 C 
HETATM    9  O12 KAN  4699       0.367  36.467 231.439  1.00 20.00    -0.349 OA
HETATM   10  C17 KAN  4699      -0.623  36.496 230.400  1.00 20.00     0.179 C 
HETATM   11  C16 KAN  4699      -1.042  37.928 230.199  1.00 20.00     0.182 C 
HETATM   12  C15 KAN  4699      -1.584  38.426 231.572  1.00 20.00     0.248 C 
HETATM   13  C14 KAN  4699      -0.471  38.340 232.639  1.00 20.00     0.206 C 
BRANCH  10  14
HETATM   14  C18 KAN  4699      -0.057  35.796 229.145  1.00 20.00     0.198 C 
BRANCH  14  15
HETATM   15  O15 KAN  4699       1.398  35.793 229.210  1.00 20.00    -0.398 OA
ATOM     16  H15 KAN  4699       1.673  35.597 230.099  1.00  0.00     0.209 HD
ENDBRANCH  14  15
ENDBRANCH  10  14
BRANCH  11  17
HETATM   17  O14 KAN  4699      -2.068  37.980 229.237  1.00 20.00    -0.391 OA
ATOM     18  H14 KAN  4699      -2.310  38.885 229.076  1.00  0.00     0.210 HD
ENDBRANCH  11  17
BRANCH  12  19
HETATM   19  N4  KAN  4699      -2.191  39.759 231.478  1.00 20.00    -0.070 N 
ATOM     20  H43 KAN  4699      -1.526  40.481 231.754  1.00  0.00     0.274 HD
ATOM     21  H42 KAN  4699      -2.332  40.025 230.504  1.00  0.00     0.274 HD
ATOM     22  H41 KAN  4699      -3.059  39.842 232.007  1.00  0.00     0.274 HD
ENDBRANCH  12  19
BRANCH  13  23
HETATM   23  O13 KAN  4699      -0.965  38.763 233.879  1.00 20.00    -0.388 OA
ATOM     24  H13 KAN  4699      -1.537  39.511 233.756  1.00  0.00     0.210 HD
ENDBRANCH  13  23
ENDBRANCH   7   8
ENDBRANCH   2   7
BRANCH   1  25
HETATM   25  N3  KAN  4699      -0.574  33.394 232.370  1.00 20.00    -0.072 N 
ATOM     26  H33 KAN  4699      -1.235  34.062 231.973  1.00  0.00     0.274 HD
ATOM     27  H32 KAN  4699       0.051  33.293 231.570  1.00  0.00     0.274 HD
ATOM     28  H31 KAN  4699      -1.029  32.511 232.600  1.00  0.00     0.274 HD
ENDBRANCH   1  25
BRANCH   3  29
HETATM   29  O10 KAN  4699      -0.879  36.727 235.981  1.00 20.00    -0.390 OA
ATOM     30  H10 KAN  4699      -0.462  37.113 236.742  1.00  0.00     0.210 HD
ENDBRANCH   3  29
BRANCH   4  31
HETATM   31  O9  KAN  4699       1.286  35.213 237.395  1.00 20.00    -0.349 OA
BRANCH  31  32
HETATM   32  C1  KAN  4699       2.503  35.863 236.981  1.00 20.00     0.292 C 
HETATM   33  O5  KAN  4699       2.196  37.209 236.775  1.00 20.00    -0.349 OA
HETATM   34  C5  KAN  4699       1.853  38.024 237.902  1.00 20.00     0.181 C 
HETATM   35  C4  KAN  4699       2.779  37.857 239.071  1.00 20.00     0.180 C 
HETATM   36  C3  KAN  4699       2.925  36.372 239.321  1.00 20.00     0.183 C 
HETATM   37  C2  KAN  4699       3.541  35.720 238.085  1.00 20.00     0.204 C 
BRANCH  34  38
HETATM   38  C6  KAN  4699       1.694  39.520 237.513  1.00 20.00     0.264 C 
BRANCH  38  39
HETATM   39  N1  KAN  4699       0.518  39.611 236.574  1.00 20.00    -0.077 N 
ATOM     40  H13 KAN  4699      -0.211  38.929 236.780  1.00  0.00     0.274 HD
ATOM     41  H12 KAN  4699      -0.044  40.450 236.716  1.00  0.00     0.274 HD
ATOM     42  H11 KAN  4699       0.886  39.531 235.626  1.00  0.00     0.274 HD
ENDBRANCH  38  39
ENDBRANCH  34  38
BRANCH  35  43
HETATM   43  O8  KAN  4699       2.136  38.482 240.166  1.00 20.00    -0.390 OA
ATOM     44  H8  KAN  4699       2.721  38.524 240.914  1.00  0.00     0.210 HD
ENDBRANCH  35  43
BRANCH  36  45
HETATM   45  O7  KAN  4699       3.795  36.216 240.475  1.00 20.00    -0.390 OA
ATOM     46  H7  KAN  4699       3.290  36.017 241.254  1.00  0.00     0.210 HD
ENDBRANCH  36  45
BRANCH  37  47
HETATM   47  O6  KAN  4699       3.751  34.304 238.337  1.00 20.00    -0.388 OA
ATOM     48  H6  KAN  4699       3.766  34.165 239.277  1.00  0.00     0.210 HD
ENDBRANCH  37  47
ENDBRANCH  31  32
ENDBRANCH   4  31
BRANCH   5  49
HETATM   49  N2  KAN  4699       1.613  32.543 236.765  1.00 20.00    -0.072 N 
ATOM     50  H23 KAN  4699       1.172  31.645 236.568  1.00  0.00     0.274 HD
ATOM     51  H22 KAN  4699       2.584  32.232 236.716  1.00  0.00     0.274 HD
ATOM     52  H21 KAN  4699       1.362  32.911 237.683  1.00  0.00     0.274 HD
ENDBRANCH   5  49
TORSDOF 17
ENDMDL
MODEL 4
REMARK VINA RESULT:      -6.1      8.014     10.206
REMARK  17 active torsions:
REMARK  status: ('A' for Active; 'I' for Inactive)
REMARK    1  A    between atoms: C1_1  and  O9_42 
REMARK    2  A    between atoms: C2_2  and  O6_36 
REMARK    3  A    between atoms: C3_3  and  O7_38 
REMARK    4  A    between atoms: C4_4  and  O8_40 
REMARK    5  A    between atoms: C5_5  and  C6_6 
REMARK    6  A    between atoms: C6_6  and  N1_19 
REMARK    7  A    between atoms: C7_7  and  N3_27 
REMARK    8  A    between atoms: C8_8  and  O11_45 
REMARK    9  A    between atoms: C9_9  and  O10_43 
REMARK   10  A    between atoms: C10_10  and  O9_42 
REMARK   11  A    between atoms: C11_11  and  N2_23 
REMARK   12  A    between atoms: C13_13  and  O11_45 
REMARK   13  A    between atoms: C14_14  and  O13_47 
REMARK   14  A    between atoms: C15_15  and  N4_31 
REMARK   15  A    between atoms: C16_16  and  O14_49 
REMARK   16  A    between atoms: C17_17  and  C18_18 
REMARK   17  A    between atoms: C18_18  and  O15_51 
ROOT
HETATM    1  C7  KAN  4699      -0.144  35.229 232.963  1.00 20.00     0.217 C 
HETATM    2  C8  KAN  4699      -1.193  36.197 233.531  1.00 20.00     0.186 C 
HETATM    3  C9  KAN  4699      -0.490  37.175 234.500  1.00 20.00     0.180 C 
HETATM    4  C10 KAN  4699       0.158  36.376 235.655  1.00 20.00     0.186 C 
HETATM    5  C11 KAN  4699       1.215  35.399 235.052  1.00 20.00     0.217 C 
HETATM    6  C12 KAN  4699       0.527  34.435 234.056  1.00 20.00     0.071 C 
ENDROOT
BRANCH   2   7
HETATM    7  O11 KAN  4699      -1.807  36.959 232.474  1.00 20.00    -0.349 OA
BRANCH   7   8
HETATM    8  C13 KAN  4699      -0.945  37.909 231.758  1.00 20.00     0.291 C 
HETATM    9  O12 KAN  4699      -0.650  37.393 230.466  1.00 20.00    -0.349 OA
HETATM   10  C17 KAN  4699      -1.729  37.119 229.561  1.00 20.00     0.179 C 
HETATM   11  C16 KAN  4699      -2.435  38.417 229.273  1.00 20.00     0.182 C 
HETATM   12  C15 KAN  4699      -2.917  38.971 230.647  1.00 20.00     0.248 C 
HETATM   13  C14 KAN  4699      -1.705  39.215 231.571  1.00 20.00     0.206 C 
BRANCH  10  14
HETATM   14  C18 KAN  4699      -1.172  36.387 228.320  1.00 20.00     0.198 C 
BRANCH  14  15
HETATM   15  O15 KAN  4699       0.252  36.669 228.194  1.00 20.00    -0.398 OA
ATOM     16  H15 KAN  4699       0.606  36.179 227.460  1.00  0.00     0.209 HD
ENDBRANCH  14  15
ENDBRANCH  10  14
BRANCH  11  17
HETATM   17  O14 KAN  4699      -3.545  38.168 228.445  1.00 20.00    -0.391 OA
ATOM     18  H14 KAN  4699      -3.326  38.377 227.545  1.00  0.00     0.210 HD
ENDBRANCH  11  17
BRANCH  12  19
HETATM   19  N4  KAN  4699      -3.776  40.151 230.498  1.00 20.00    -0.070 N 
ATOM     20  H43 KAN  4699      -3.254  40.934 230.105  1.00  0.00     0.274 HD
ATOM     21  H42 KAN  4699      -4.457  40.013 229.752  1.00  0.00     0.274 HD
ATOM     22  H41 KAN  4699      -4.238  40.423 231.366  1.00  0.00     0.274 HD
ENDBRANCH  12  19
BRANCH  13  23
HETATM   23  O13 KAN  4699      -2.140  39.687 232.815  1.00 20.00    -0.388 OA
ATOM     24  H13 KAN  4699      -2.321  40.618 232.757  1.00  0.00     0.210 HD
ENDBRANCH  13  23
ENDBRANCH   7   8
ENDBRANCH   2   7
BRANCH   1  25
HETATM   25  N3  KAN  4699      -0.825  34.324 231.944  1.00 20.00    -0.072 N 
ATOM     26  H33 KAN  4699      -0.572  34.582 230.990  1.00  0.00     0.274 HD
ATOM     27  H32 KAN  4699      -0.434  33.382 231.963  1.00  0.00     0.274 HD
ATOM     28  H31 KAN  4699      -1.837  34.308 232.070  1.00  0.00     0.274 HD
ENDBRANCH   1  25
BRANCH   3  29
HETATM   29  O10 KAN  4699      -1.531  38.084 235.042  1.00 20.00    -0.390 OA
ATOM     30  H10 KAN  4699      -1.631  37.935 235.975  1.00  0.00     0.210 HD
ENDBRANCH   3  29
BRANCH   4  31
HETATM   31  O9  KAN  4699       0.998  37.259 236.425  1.00 20.00    -0.349 OA
BRANCH  31  32
HETATM   32  C1  KAN  4699       0.561  37.783 237.694  1.00 20.00     0.292 C 
HETATM   33  O5  KAN  4699       0.787  36.786 238.645  1.00 20.00    -0.349 OA
HETATM   34  C5  KAN  4699       2.136  36.433 238.975  1.00 20.00     0.181 C 
HETATM   35  C4  KAN  4699       3.028  37.617 239.214  1.00 20.00     0.180 C 
HETATM   36  C3  KAN  4699       2.835  38.567 238.052  1.00 20.00     0.183 C 
HETATM   37  C2  KAN  4699       1.378  39.024 238.023  1.00 20.00     0.204 C 
BRANCH  34  38
HETATM   38  C6  KAN  4699       2.204  35.425 240.156  1.00 20.00     0.264 C 
BRANCH  38  39
HETATM   39  N1  KAN  4699       0.783  35.123 240.561  1.00 20.00    -0.077 N 
ATOM     40  H13 KAN  4699       0.716  34.658 241.466  1.00  0.00     0.274 HD
ATOM     41  H12 KAN  4699       0.249  35.957 240.803  1.00  0.00     0.274 HD
ATOM     42  H11 KAN  4699       0.364  34.586 239.802  1.00  0.00     0.274 HD
ENDBRANCH  38  39
ENDBRANCH  34  38
BRANCH  35  43
HETATM   43  O8  KAN  4699       4.349  37.110 239.224  1.00 20.00    -0.390 OA
ATOM     44  H8  KAN  4699       4.407  36.323 238.694  1.00  0.00     0.210 HD
ENDBRANCH  35  43
BRANCH  36  45
HETATM   45  O7  KAN  4699       3.725  39.695 238.271  1.00 20.00    -0.390 OA
ATOM     46  H7  KAN  4699       3.270  40.405 238.706  1.00  0.00     0.210 HD
ENDBRANCH  36  45
BRANCH  37  47
HETATM   47  O6  KAN  4699       1.194  39.992 236.955  1.00 20.00    -0.388 OA
ATOM     48  H6  KAN  4699       1.801  40.710 237.092  1.00  0.00     0.210 HD
ENDBRANCH  37  47
ENDBRANCH  31  32
ENDBRANCH   4  31
BRANCH   5  49
HETATM   49  N2  KAN  4699       1.812  34.632 236.159  1.00 20.00    -0.072 N 
ATOM     50  H23 KAN  4699       2.786  34.881 236.331  1.00  0.00     0.274 HD
ATOM     51  H22 KAN  4699       1.439  34.900 237.070  1.00  0.00     0.274 HD
ATOM     52  H21 KAN  4699       1.689  33.639 235.959  1.00  0.00     0.274 HD
ENDBRANCH   5  49
TORSDOF 17
ENDMDL
MODEL 5
REMARK VINA RESULT:      -6.0      5.187      8.167
REMARK  17 active torsions:
REMARK  status: ('A' for Active; 'I' for Inactive)
REMARK    1  A    between atoms: C1_1  and  O9_42 
REMARK    2  A    between atoms: C2_2  and  O6_36 
REMARK    3  A    between atoms: C3_3  and  O7_38 
REMARK    4  A    between atoms: C4_4  and  O8_40 
REMARK    5  A    between atoms: C5_5  and  C6_6 
REMARK    6  A    between atoms: C6_6  and  N1_19 
REMARK    7  A    between atoms: C7_7  and  N3_27 
REMARK    8  A    between atoms: C8_8  and  O11_45 
REMARK    9  A    between atoms: C9_9  and  O10_43 
REMARK   10  A    between atoms: C10_10  and  O9_42 
REMARK   11  A    between atoms: C11_11  and  N2_23 
REMARK   12  A    between atoms: C13_13  and  O11_45 
REMARK   13  A    between atoms: C14_14  and  O13_47 
REMARK   14  A    between atoms: C15_15  and  N4_31 
REMARK   15  A    between atoms: C16_16  and  O14_49 
REMARK   16  A    between atoms: C17_17  and  C18_18 
REMARK   17  A    between atoms: C18_18  and  O15_51 
ROOT
HETATM    1  C7  KAN  4699      -3.368  38.601 228.809  1.00 20.00     0.217 C 
HETATM    2  C8  KAN  4699      -2.860  39.691 229.765  1.00 20.00     0.186 C 
HETATM    3  C9  KAN  4699      -1.987  39.025 230.853  1.00 20.00     0.180 C 
HETATM    4  C10 KAN  4699      -2.839  38.001 231.640  1.00 20.00     0.186 C 
HETATM    5  C11 KAN  4699      -3.345  36.909 230.647  1.00 20.00     0.217 C 
HETATM    6  C12 KAN  4699      -4.196  37.569 229.534  1.00 20.00     0.071 C 
ENDROOT
BRANCH   2   7
HETATM    7  O11 KAN  4699      -2.057  40.654 229.057  1.00 20.00    -0.349 OA
BRANCH   7   8
HETATM    8  C13 KAN  4699      -2.375  42.071 229.279  1.00 20.00     0.291 C 
HETATM    9  O12 KAN  4699      -1.240  42.727 229.829  1.00 20.00    -0.349 OA
HETATM   10  C17 KAN  4699      -0.012  42.737 229.085  1.00 20.00     0.179 C 
HETATM   11  C16 KAN  4699      -0.257  43.470 227.794  1.00 20.00     0.182 C 
HETATM   12  C15 KAN  4699      -1.405  42.710 227.066  1.00 20.00     0.248 C 
HETATM   13  C14 KAN  4699      -2.679  42.721 227.937  1.00 20.00     0.206 C 
BRANCH  10  14
HETATM   14  C18 KAN  4699       1.108  43.324 229.972  1.00 20.00     0.198 C 
BRANCH  14  15
HETATM   15  O15 KAN  4699       2.388  43.178 229.291  1.00 20.00    -0.398 OA
ATOM     16  H15 KAN  4699       3.069  43.591 229.810  1.00  0.00     0.209 HD
ENDBRANCH  14  15
ENDBRANCH  10  14
BRANCH  11  17
HETATM   17  O14 KAN  4699       0.911  43.432 227.010  1.00 20.00    -0.391 OA
ATOM     18  H14 KAN  4699       1.665  43.645 227.548  1.00  0.00     0.210 HD
ENDBRANCH  11  17
BRANCH  12  19
HETATM   19  N4  KAN  4699      -1.630  43.217 225.707  1.00 20.00    -0.070 N 
ATOM     20  H43 KAN  4699      -2.033  42.493 225.112  1.00  0.00     0.274 HD
ATOM     21  H42 KAN  4699      -2.396  43.890 225.693  1.00  0.00     0.274 HD
ATOM     22  H41 KAN  4699      -0.792  43.612 225.282  1.00  0.00     0.274 HD
ENDBRANCH  12  19
BRANCH  13  23
HETATM   23  O13 KAN  4699      -3.703  42.016 227.294  1.00 20.00    -0.388 OA
ATOM     24  H13 KAN  4699      -3.662  42.175 226.358  1.00  0.00     0.210 HD
ENDBRANCH  13  23
ENDBRANCH   7   8
ENDBRANCH   2   7
BRANCH   1  25
HETATM   25  N3  KAN  4699      -4.156  39.272 227.690  1.00 20.00    -0.072 N 
ATOM     26  H33 KAN  4699      -4.983  39.747 228.052  1.00  0.00     0.274 HD
ATOM     27  H32 KAN  4699      -3.658  40.080 227.318  1.00  0.00     0.274 HD
ATOM     28  H31 KAN  4699      -4.399  38.612 226.951  1.00  0.00     0.274 HD
ENDBRANCH   1  25
BRANCH   3  29
HETATM   29  O10 KAN  4699      -1.525  40.099 231.768  1.00 20.00    -0.390 OA
ATOM     30  H10 KAN  4699      -2.271  40.601 232.074  1.00  0.00     0.210 HD
ENDBRANCH   3  29
BRANCH   4  31
HETATM   31  O9  KAN  4699      -1.974  37.226 232.493  1.00 20.00    -0.349 OA
BRANCH  31  32
HETATM   32  C1  KAN  4699      -2.241  37.095 233.903  1.00 20.00     0.292 C 
HETATM   33  O5  KAN  4699      -2.566  35.757 234.133  1.00 20.00    -0.349 OA
HETATM   34  C5  KAN  4699      -1.550  34.758 233.980  1.00 20.00     0.181 C 
HETATM   35  C4  KAN  4699      -0.249  35.116 234.638  1.00 20.00     0.180 C 
HETATM   36  C3  KAN  4699       0.103  36.521 234.203  1.00 20.00     0.183 C 
HETATM   37  C2  KAN  4699      -0.989  37.476 234.680  1.00 20.00     0.204 C 
BRANCH  34  38
HETATM   38  C6  KAN  4699      -2.042  33.353 234.424  1.00 20.00     0.264 C 
BRANCH  38  39
HETATM   39  N1  KAN  4699      -1.578  32.371 233.378  1.00 20.00    -0.077 N 
ATOM     40  H13 KAN  4699      -1.531  31.412 233.723  1.00  0.00     0.274 HD
ATOM     41  H12 KAN  4699      -2.268  32.212 232.644  1.00  0.00     0.274 HD
ATOM     42  H11 KAN  4699      -0.686  32.713 233.021  1.00  0.00     0.274 HD
ENDBRANCH  38  39
ENDBRANCH  34  38
BRANCH  35  43
HETATM   43  O8  KAN  4699       0.701  34.192 234.144  1.00 20.00    -0.390 OA
ATOM     44  H8  KAN  4699       1.485  34.202 234.682  1.00  0.00     0.210 HD
ENDBRANCH  35  43
BRANCH  36  45
HETATM   45  O7  KAN  4699       1.380  36.851 234.816  1.00 20.00    -0.390 OA
ATOM     46  H7  KAN  4699       1.565  36.270 235.544  1.00  0.00     0.210 HD
ENDBRANCH  36  45
BRANCH  37  47
HETATM   47  O6  KAN  4699      -0.628  38.840 234.330  1.00 20.00    -0.388 OA
ATOM     48  H6  KAN  4699       0.313  38.880 234.207  1.00  0.00     0.210 HD
ENDBRANCH  37  47
ENDBRANCH  31  32
ENDBRANCH   4  31
BRANCH   5  49
HETATM   49  N2  KAN  4699      -4.169  35.950 231.404  1.00 20.00    -0.072 N 
ATOM     50  H23 KAN  4699      -3.743  35.025 231.463  1.00  0.00     0.274 HD
ATOM     51  H22 KAN  4699      -4.194  36.154 232.403  1.00  0.00     0.274 HD
ATOM     52  H21 KAN  4699      -5.098  35.929 230.982  1.00  0.00     0.274 HD
ENDBRANCH   5  49
TORSDOF 17
ENDMDL
MODEL 6
REMARK VINA RESULT:      -5.9      9.101     11.290
REMARK  17 active torsions:
REMARK  status: ('A' for Active; 'I' for Inactive)
REMARK    1  A    between atoms: C1_1  and  O9_42 
REMARK    2  A    between atoms: C2_2  and  O6_36 
REMARK    3  A    between atoms: C3_3  and  O7_38 
REMARK    4  A    between atoms: C4_4  and  O8_40 
REMARK    5  A    between atoms: C5_5  and  C6_6 
REMARK    6  A    between atoms: C6_6  and  N1_19 
REMARK    7  A    between atoms: C7_7  and  N3_27 
REMARK    8  A    between atoms: C8_8  and  O11_45 
REMARK    9  A    between atoms: C9_9  and  O10_43 
REMARK   10  A    between atoms: C10_10  and  O9_42 
REMARK   11  A    between atoms: C11_11  and  N2_23 
REMARK   12  A    between atoms: C13_13  and  O11_45 
REMARK   13  A    between atoms: C14_14  and  O13_47 
REMARK   14  A    between atoms: C15_15  and  N4_31 
REMARK   15  A    between atoms: C16_16  and  O14_49 
REMARK   16  A    between atoms: C17_17  and  C18_18 
REMARK   17  A    between atoms: C18_18  and  O15_51 
ROOT
HETATM    1  C7  KAN  4699       1.102  32.554 233.871  1.00 20.00     0.217 C 
HETATM    2  C8  KAN  4699       0.223  33.808 233.751  1.00 20.00     0.186 C 
HETATM    3  C9  KAN  4699       0.726  34.861 234.765  1.00 20.00     0.180 C 
HETATM    4  C10 KAN  4699       0.619  34.287 236.198  1.00 20.00     0.186 C 
HETATM    5  C11 KAN  4699       1.517  33.014 236.291  1.00 20.00     0.217 C 
HETATM    6  C12 KAN  4699       1.042  31.963 235.258  1.00 20.00     0.071 C 
ENDROOT
BRANCH   2   7
HETATM    7  O11 KAN  4699       0.311  34.366 232.427  1.00 20.00    -0.349 OA
BRANCH   7   8
HETATM    8  C13 KAN  4699      -0.941  34.457 231.664  1.00 20.00     0.291 C 
HETATM    9  O12 KAN  4699      -1.429  35.791 231.718  1.00 20.00    -0.349 OA
HETATM   10  C17 KAN  4699      -0.610  36.855 231.211  1.00 20.00     0.179 C 
HETATM   11  C16 KAN  4699      -0.395  36.615 229.741  1.00 20.00     0.182 C 
HETATM   12  C15 KAN  4699       0.277  35.215 229.616  1.00 20.00     0.248 C 
HETATM   13  C14 KAN  4699      -0.651  34.131 230.205  1.00 20.00     0.206 C 
BRANCH  10  14
HETATM   14  C18 KAN  4699      -1.266  38.207 231.565  1.00 20.00     0.198 C 
BRANCH  14  15
HETATM   15  O15 KAN  4699      -1.097  38.467 232.989  1.00 20.00    -0.398 OA
ATOM     16  H15 KAN  4699      -0.887  39.384 233.119  1.00  0.00     0.209 HD
ENDBRANCH  14  15
ENDBRANCH  10  14
BRANCH  11  17
HETATM   17  O14 KAN  4699       0.467  37.602 229.231  1.00 20.00    -0.391 OA
ATOM     18  H14 KAN  4699       0.288  37.738 228.308  1.00  0.00     0.210 HD
ENDBRANCH  11  17
BRANCH  12  19
HETATM   19  N4  KAN  4699       0.704  34.925 228.243  1.00 20.00    -0.070 N 
ATOM     20  H43 KAN  4699       0.055  34.283 227.788  1.00  0.00     0.274 HD
ATOM     21  H42 KAN  4699       0.579  35.741 227.644  1.00  0.00     0.274 HD
ATOM     22  H41 KAN  4699       1.660  34.575 228.185  1.00  0.00     0.274 HD
ENDBRANCH  12  19
BRANCH  13  23
HETATM   23  O13 KAN  4699      -0.036  32.877 230.117  1.00 20.00    -0.388 OA
ATOM     24  H13 KAN  4699       0.632  32.801 230.789  1.00  0.00     0.210 HD
ENDBRANCH  13  23
ENDBRANCH   7   8
ENDBRANCH   2   7
BRANCH   1  25
HETATM   25  N3  KAN  4699       0.658  31.552 232.811  1.00 20.00    -0.072 N 
ATOM     26  H33 KAN  4699       0.079  31.997 232.099  1.00  0.00     0.274 HD
ATOM     27  H32 KAN  4699       1.439  31.263 232.222  1.00  0.00     0.274 HD
ATOM     28  H31 KAN  4699       0.188  30.748 233.225  1.00  0.00     0.274 HD
ENDBRANCH   1  25
BRANCH   3  29
HETATM   29  O10 KAN  4699      -0.152  36.052 234.637  1.00 20.00    -0.390 OA
ATOM     30  H10 KAN  4699       0.318  36.749 234.195  1.00  0.00     0.210 HD
ENDBRANCH   3  29
BRANCH   4  31
HETATM   31  O9  KAN  4699       1.294  35.174 237.111  1.00 20.00    -0.349 OA
BRANCH  31  32
HETATM   32  C1  KAN  4699       2.529  35.821 236.746  1.00 20.00     0.292 C 
HETATM   33  O5  KAN  4699       2.212  37.137 236.401  1.00 20.00    -0.349 OA
HETATM   34  C5  KAN  4699       1.757  38.032 237.422  1.00 20.00     0.181 C 
HETATM   35  C4  KAN  4699       2.582  37.989 238.675  1.00 20.00     0.180 C 
HETATM   36  C3  KAN  4699       2.737  36.534 239.062  1.00 20.00     0.183 C 
HETATM   37  C2  KAN  4699       3.470  35.799 237.942  1.00 20.00     0.204 C 
BRANCH  34  38
HETATM   38  C6  KAN  4699       1.601  39.486 236.896  1.00 20.00     0.264 C 
BRANCH  38  39
HETATM   39  N1  KAN  4699       0.357  40.055 237.529  1.00 20.00    -0.077 N 
ATOM     40  H13 KAN  4699       0.473  40.262 238.521  1.00  0.00     0.274 HD
ATOM     41  H12 KAN  4699       0.149  41.005 237.220  1.00  0.00     0.274 HD
ATOM     42  H11 KAN  4699      -0.401  39.399 237.342  1.00  0.00     0.274 HD
ENDBRANCH  38  39
ENDBRANCH  34  38
BRANCH  35  43
HETATM   43  O8  KAN  4699       1.835  38.685 239.655  1.00 20.00    -0.390 OA
ATOM     44  H8  KAN  4699       0.926  38.407 239.639  1.00  0.00     0.210 HD
ENDBRANCH  35  43
BRANCH  36  45
HETATM   45  O7  KAN  4699       3.507  36.499 240.294  1.00 20.00    -0.390 OA
ATOM     46  H7  KAN  4699       3.836  37.363 240.511  1.00  0.00     0.210 HD
ENDBRANCH  36  45
BRANCH  37  47
HETATM   47  O6  KAN  4699       3.687  34.416 238.331  1.00 20.00    -0.388 OA
ATOM     48  H6  KAN  4699       3.933  34.397 239.248  1.00  0.00     0.210 HD
ENDBRANCH  37  47
ENDBRANCH  31  32
ENDBRANCH   4  31
BRANCH   5  49
HETATM   49  N2  KAN  4699       1.393  32.467 237.653  1.00 20.00    -0.072 N 
ATOM     50  H23 KAN  4699       1.011  31.521 237.664  1.00  0.00     0.274 HD
ATOM     51  H22 KAN  4699       2.297  32.255 238.076  1.00  0.00     0.274 HD
ATOM     52  H21 KAN  4699       0.842  33.121 238.209  1.00  0.00     0.274 HD
ENDBRANCH   5  49
TORSDOF 17
ENDMDL
MODEL 7
REMARK VINA RESULT:      -5.8      7.264     11.736
REMARK  17 active torsions:
REMARK  status: ('A' for Active; 'I' for Inactive)
REMARK    1  A    between atoms: C1_1  and  O9_42 
REMARK    2  A    between atoms: C2_2  and  O6_36 
REMARK    3  A    between atoms: C3_3  and  O7_38 
REMARK    4  A    between atoms: C4_4  and  O8_40 
REMARK    5  A    between atoms: C5_5  and  C6_6 
REMARK    6  A    between atoms: C6_6  and  N1_19 
REMARK    7  A    between atoms: C7_7  and  N3_27 
REMARK    8  A    between atoms: C8_8  and  O11_45 
REMARK    9  A    between atoms: C9_9  and  O10_43 
REMARK   10  A    between atoms: C10_10  and  O9_42 
REMARK   11  A    between atoms: C11_11  and  N2_23 
REMARK   12  A    between atoms: C13_13  and  O11_45 
REMARK   13  A    between atoms: C14_14  and  O13_47 
REMARK   14  A    between atoms: C15_15  and  N4_31 
REMARK   15  A    between atoms: C16_16  and  O14_49 
REMARK   16  A    between atoms: C17_17  and  C18_18 
REMARK   17  A    between atoms: C18_18  and  O15_51 
ROOT
HETATM    1  C7  KAN  4699      -2.088  36.680 235.310  1.00 20.00     0.217 C 
HETATM    2  C8  KAN  4699      -0.811  36.477 234.480  1.00 20.00     0.186 C 
HETATM    3  C9  KAN  4699      -0.667  37.661 233.498  1.00 20.00     0.180 C 
HETATM    4  C10 KAN  4699      -1.896  37.702 232.559  1.00 20.00     0.186 C 
HETATM    5  C11 KAN  4699      -3.177  37.905 233.425  1.00 20.00     0.217 C 
HETATM    6  C12 KAN  4699      -3.315  36.740 234.434  1.00 20.00     0.071 C 
ENDROOT
BRANCH   2   7
HETATM    7  O11 KAN  4699       0.349  36.442 235.332  1.00 20.00    -0.349 OA
BRANCH   7   8
HETATM    8  C13 KAN  4699       0.430  37.469 236.379  1.00 20.00     0.291 C 
HETATM    9  O12 KAN  4699       0.248  36.859 237.651  1.00 20.00    -0.349 OA
HETATM   10  C17 KAN  4699       1.159  35.832 238.069  1.00 20.00     0.179 C 
HETATM   11  C16 KAN  4699       2.533  36.439 238.160  1.00 20.00     0.182 C 
HETATM   12  C15 KAN  4699       2.860  37.005 236.746  1.00 20.00     0.248 C 
HETATM   13  C14 KAN  4699       1.824  38.082 236.358  1.00 20.00     0.206 C 
BRANCH  10  14
HETATM   14  C18 KAN  4699       0.635  35.197 239.376  1.00 20.00     0.198 C 
BRANCH  14  15
HETATM   15  O15 KAN  4699       1.458  35.642 240.492  1.00 20.00    -0.398 OA
ATOM     16  H15 KAN  4699       1.599  36.580 240.425  1.00  0.00     0.209 HD
ENDBRANCH  14  15
ENDBRANCH  10  14
BRANCH  11  17
HETATM   17  O14 KAN  4699       3.461  35.437 238.497  1.00 20.00    -0.391 OA
ATOM     18  H14 KAN  4699       3.318  35.156 239.393  1.00  0.00     0.210 HD
ENDBRANCH  11  17
BRANCH  12  19
HETATM   19  N4  KAN  4699       4.246  37.474 236.643  1.00 20.00    -0.070 N 
ATOM     20  H43 KAN  4699       4.666  37.177 235.762  1.00  0.00     0.274 HD
ATOM     21  H42 KAN  4699       4.278  38.485 236.511  1.00  0.00     0.274 HD
ATOM     22  H41 KAN  4699       4.825  37.193 237.434  1.00  0.00     0.274 HD
ENDBRANCH  12  19
BRANCH  13  23
HETATM   23  O13 KAN  4699       2.102  38.571 235.076  1.00 20.00    -0.388 OA
ATOM     24  H13 KAN  4699       1.586  39.352 234.914  1.00  0.00     0.210 HD
ENDBRANCH  13  23
ENDBRANCH   7   8
ENDBRANCH   2   7
BRANCH   1  25
HETATM   25  N3  KAN  4699      -2.180  35.555 236.334  1.00 20.00    -0.072 N 
ATOM     26  H33 KAN  4699      -2.994  35.668 236.938  1.00  0.00     0.274 HD
ATOM     27  H32 KAN  4699      -2.431  34.670 235.894  1.00  0.00     0.274 HD
ATOM     28  H31 KAN  4699      -1.322  35.469 236.879  1.00  0.00     0.274 HD
ENDBRANCH   1  25
BRANCH   3  29
HETATM   29  O10 KAN  4699       0.564  37.428 232.701  1.00 20.00    -0.390 OA
ATOM     30  H10 KAN  4699       0.621  38.071 232.005  1.00  0.00     0.210 HD
ENDBRANCH   3  29
BRANCH   4  31
HETATM   31  O9  KAN  4699      -1.870  38.930 231.803  1.00 20.00    -0.349 OA
BRANCH  31  32
HETATM   32  C1  KAN  4699      -1.244  38.993 230.507  1.00 20.00     0.292 C 
HETATM   33  O5  KAN  4699      -1.605  37.831 229.823  1.00 20.00    -0.349 OA
HETATM   34  C5  KAN  4699      -2.971  37.652 229.429  1.00 20.00     0.181 C 
HETATM   35  C4  KAN  4699      -3.576  38.866 228.784  1.00 20.00     0.180 C 
HETATM   36  C3  KAN  4699      -3.272  40.048 229.677  1.00 20.00     0.183 C 
HETATM   37  C2  KAN  4699      -1.757  40.222 229.771  1.00 20.00     0.204 C 
BRANCH  34  38
HETATM   38  C6  KAN  4699      -3.163  36.387 228.548  1.00 20.00     0.264 C 
BRANCH  38  39
HETATM   39  N1  KAN  4699      -3.260  36.854 227.118  1.00 20.00    -0.077 N 
ATOM     40  H13 KAN  4699      -2.859  37.781 226.972  1.00  0.00     0.274 HD
ATOM     41  H12 KAN  4699      -2.641  36.344 226.487  1.00  0.00     0.274 HD
ATOM     42  H11 KAN  4699      -4.242  36.795 226.849  1.00  0.00     0.274 HD
ENDBRANCH  38  39
ENDBRANCH  34  38
BRANCH  35  43
HETATM   43  O8  KAN  4699      -4.970  38.625 228.739  1.00 20.00    -0.390 OA
ATOM     44  H8  KAN  4699      -5.430  39.394 228.422  1.00  0.00     0.210 HD
ENDBRANCH  35  43
BRANCH  36  45
HETATM   45  O7  KAN  4699      -3.889  41.215 229.067  1.00 20.00    -0.390 OA
ATOM     46  H7  KAN  4699      -3.948  41.111 228.125  1.00  0.00     0.210 HD
ENDBRANCH  36  45
BRANCH  37  47
HETATM   47  O6  KAN  4699      -1.452  41.397 230.568  1.00 20.00    -0.388 OA
ATOM     48  H6  KAN  4699      -1.925  42.137 230.207  1.00  0.00     0.210 HD
ENDBRANCH  37  47
ENDBRANCH  31  32
ENDBRANCH   4  31
BRANCH   5  49
HETATM   49  N2  KAN  4699      -4.341  37.925 232.522  1.00 20.00    -0.072 N 
ATOM     50  H23 KAN  4699      -4.620  38.870 232.258  1.00  0.00     0.274 HD
ATOM     51  H22 KAN  4699      -4.120  37.581 231.587  1.00  0.00     0.274 HD
ATOM     52  H21 KAN  4699      -5.096  37.401 232.966  1.00  0.00     0.274 HD
ENDBRANCH   5  49
TORSDOF 17
ENDMDL
MODEL 8
REMARK VINA RESULT:      -5.8      8.255     12.369
REMARK  17 active torsions:
REMARK  status: ('A' for Active; 'I' for Inactive)
REMARK    1  A    between atoms: C1_1  and  O9_42 
REMARK    2  A    between atoms: C2_2  and  O6_36 
REMARK    3  A    between atoms: C3_3  and  O7_38 
REMARK    4  A    between atoms: C4_4  and  O8_40 
REMARK    5  A    between atoms: C5_5  and  C6_6 
REMARK    6  A    between atoms: C6_6  and  N1_19 
REMARK    7  A    between atoms: C7_7  and  N3_27 
REMARK    8  A    between atoms: C8_8  and  O11_45 
REMARK    9  A    between atoms: C9_9  and  O10_43 
REMARK   10  A    between atoms: C10_10  and  O9_42 
REMARK   11  A    between atoms: C11_11  and  N2_23 
REMARK   12  A    between atoms: C13_13  and  O11_45 
REMARK   13  A    between atoms: C14_14  and  O13_47 
REMARK   14  A    between atoms: C15_15  and  N4_31 
REMARK   15  A    between atoms: C16_16  and  O14_49 
REMARK   16  A    between atoms: C17_17  and  C18_18 
REMARK   17  A    between atoms: C18_18  and  O15_51 
ROOT
HETATM    1  C7  KAN  4699      -0.486  37.789 233.392  1.00 20.00     0.217 C 
HETATM    2  C8  KAN  4699      -0.913  36.409 233.914  1.00 20.00     0.186 C 
HETATM    3  C9  KAN  4699      -0.502  35.340 232.875  1.00 20.00     0.180 C 
HETATM    4  C10 KAN  4699      -1.212  35.630 231.532  1.00 20.00     0.186 C 
HETATM    5  C11 KAN  4699      -0.765  37.036 231.026  1.00 20.00     0.217 C 
HETATM    6  C12 KAN  4699      -1.144  38.112 232.073  1.00 20.00     0.071 C 
ENDROOT
BRANCH   2   7
HETATM    7  O11 KAN  4699      -0.259  36.113 235.162  1.00 20.00    -0.349 OA
BRANCH   7   8
HETATM    8  C13 KAN  4699       1.209  36.086 235.149  1.00 20.00     0.291 C 
HETATM    9  O12 KAN  4699       1.706  37.297 235.704  1.00 20.00    -0.349 OA
HETATM   10  C17 KAN  4699       1.355  37.642 237.052  1.00 20.00     0.179 C 
HETATM   11  C16 KAN  4699       1.910  36.579 237.963  1.00 20.00     0.182 C 
HETATM   12  C15 KAN  4699       1.286  35.230 237.497  1.00 20.00     0.248 C 
HETATM   13  C14 KAN  4699       1.687  34.943 236.034  1.00 20.00     0.206 C 
BRANCH  10  14
HETATM   14  C18 KAN  4699       1.842  39.078 237.347  1.00 20.00     0.198 C 
BRANCH  14  15
HETATM   15  O15 KAN  4699       0.971  40.030 236.672  1.00 20.00    -0.398 OA
ATOM     16  H15 KAN  4699       1.112  40.898 237.034  1.00  0.00     0.209 HD
ENDBRANCH  14  15
ENDBRANCH  10  14
BRANCH  11  17
HETATM   17  O14 KAN  4699       1.517  36.852 239.286  1.00 20.00    -0.391 OA
ATOM     18  H14 KAN  4699       2.061  36.357 239.889  1.00  0.00     0.210 HD
ENDBRANCH  11  17
BRANCH  12  19
HETATM   19  N4  KAN  4699       1.606  34.126 238.410  1.00 20.00    -0.070 N 
ATOM     20  H43 KAN  4699       1.589  33.233 237.919  1.00  0.00     0.274 HD
ATOM     21  H42 KAN  4699       2.590  34.151 238.678  1.00  0.00     0.274 HD
ATOM     22  H41 KAN  4699       1.006  34.100 239.233  1.00  0.00     0.274 HD
ENDBRANCH  12  19
BRANCH  13  23
HETATM   23  O13 KAN  4699       1.105  33.743 235.606  1.00 20.00    -0.388 OA
ATOM     24  H13 KAN  4699       1.281  33.615 234.682  1.00  0.00     0.210 HD
ENDBRANCH  13  23
ENDBRANCH   7   8
ENDBRANCH   2   7
BRANCH   1  25
HETATM   25  N3  KAN  4699      -0.816  38.829 234.456  1.00 20.00    -0.072 N 
ATOM     26  H33 KAN  4699      -1.062  39.725 234.036  1.00  0.00     0.274 HD
ATOM     27  H32 KAN  4699      -1.701  38.621 234.918  1.00  0.00     0.274 HD
ATOM     28  H31 KAN  4699      -0.059  38.930 235.133  1.00  0.00     0.274 HD
ENDBRANCH   1  25
BRANCH   3  29
HETATM   29  O10 KAN  4699      -0.942  34.022 233.400  1.00 20.00    -0.390 OA
ATOM     30  H10 KAN  4699      -0.524  33.326 232.907  1.00  0.00     0.210 HD
ENDBRANCH   3  29
BRANCH   4  31
HETATM   31  O9  KAN  4699      -0.657  34.775 230.512  1.00 20.00    -0.349 OA
BRANCH  31  32
HETATM   32  C1  KAN  4699      -1.506  33.976 229.667  1.00 20.00     0.292 C 
HETATM   33  O5  KAN  4699      -1.382  34.481 228.371  1.00 20.00    -0.349 OA
HETATM   34  C5  KAN  4699      -0.135  34.329 227.682  1.00 20.00     0.181 C 
HETATM   35  C4  KAN  4699       0.442  32.947 227.778  1.00 20.00     0.180 C 
HETATM   36  C3  KAN  4699       0.415  32.548 229.237  1.00 20.00     0.183 C 
HETATM   37  C2  KAN  4699      -1.034  32.530 229.719  1.00 20.00     0.204 C 
BRANCH  34  38
HETATM   38  C6  KAN  4699      -0.223  34.807 226.206  1.00 20.00     0.264 C 
BRANCH  38  39
HETATM   39  N1  KAN  4699       1.032  35.592 225.921  1.00 20.00    -0.077 N 
ATOM     40  H13 KAN  4699       1.764  35.032 225.485  1.00  0.00     0.274 HD
ATOM     41  H12 KAN  4699       0.918  36.269 225.166  1.00  0.00     0.274 HD
ATOM     42  H11 KAN  4699       1.324  36.020 226.800  1.00  0.00     0.274 HD
ENDBRANCH  38  39
ENDBRANCH  34  38
BRANCH  35  43
HETATM   43  O8  KAN  4699       1.776  33.053 227.319  1.00 20.00    -0.390 OA
ATOM     44  H8  KAN  4699       2.386  32.922 228.036  1.00  0.00     0.210 HD
ENDBRANCH  35  43
BRANCH  36  45
HETATM   45  O7  KAN  4699       1.006  31.223 229.329  1.00 20.00    -0.390 OA
ATOM     46  H7  KAN  4699       0.333  30.555 229.368  1.00  0.00     0.210 HD
ENDBRANCH  36  45
BRANCH  37  47
HETATM   47  O6  KAN  4699      -1.081  32.080 231.099  1.00 20.00    -0.388 OA
ATOM     48  H6  KAN  4699      -0.742  32.773 231.653  1.00  0.00     0.210 HD
ENDBRANCH  37  47
ENDBRANCH  31  32
ENDBRANCH   4  31
BRANCH   5  49
HETATM   49  N2  KAN  4699      -1.461  37.308 229.756  1.00 20.00    -0.072 N 
ATOM     50  H23 KAN  4699      -2.352  36.817 229.682  1.00  0.00     0.274 HD
ATOM     51  H22 KAN  4699      -1.824  38.260 229.702  1.00  0.00     0.274 HD
ATOM     52  H21 KAN  4699      -0.824  37.084 228.992  1.00  0.00     0.274 HD
ENDBRANCH   5  49
TORSDOF 17
ENDMDL
MODEL 9
REMARK VINA RESULT:      -5.7      8.757     13.164
REMARK  17 active torsions:
REMARK  status: ('A' for Active; 'I' for Inactive)
REMARK    1  A    between atoms: C1_1  and  O9_42 
REMARK    2  A    between atoms: C2_2  and  O6_36 
REMARK    3  A    between atoms: C3_3  and  O7_38 
REMARK    4  A    between atoms: C4_4  and  O8_40 
REMARK    5  A    between atoms: C5_5  and  C6_6 
REMARK    6  A    between atoms: C6_6  and  N1_19 
REMARK    7  A    between atoms: C7_7  and  N3_27 
REMARK    8  A    between atoms: C8_8  and  O11_45 
REMARK    9  A    between atoms: C9_9  and  O10_43 
REMARK   10  A    between atoms: C10_10  and  O9_42 
REMARK   11  A    between atoms: C11_11  and  N2_23 
REMARK   12  A    between atoms: C13_13  and  O11_45 
REMARK   13  A    between atoms: C14_14  and  O13_47 
REMARK   14  A    between atoms: C15_15  and  N4_31 
REMARK   15  A    between atoms: C16_16  and  O14_49 
REMARK   16  A    between atoms: C17_17  and  C18_18 
REMARK   17  A    between atoms: C18_18  and  O15_51 
ROOT
HETATM    1  C7  KAN  4699       0.964  34.450 236.065  1.00 20.00     0.217 C 
HETATM    2  C8  KAN  4699       1.737  35.648 235.491  1.00 20.00     0.186 C 
HETATM    3  C9  KAN  4699       0.745  36.556 234.730  1.00 20.00     0.180 C 
HETATM    4  C10 KAN  4699       0.096  35.756 233.576  1.00 20.00     0.186 C 
HETATM    5  C11 KAN  4699      -0.678  34.545 234.184  1.00 20.00     0.217 C 
HETATM    6  C12 KAN  4699       0.301  33.644 234.976  1.00 20.00     0.071 C 
ENDROOT
BRANCH   2   7
HETATM    7  O11 KAN  4699       2.345  36.414 236.548  1.00 20.00    -0.349 OA
BRANCH   7   8
HETATM    8  C13 KAN  4699       1.434  37.093 237.480  1.00 20.00     0.291 C 
HETATM    9  O12 KAN  4699       1.326  36.328 238.673  1.00 20.00    -0.349 OA
HETATM   10  C17 KAN  4699       2.508  36.061 239.441  1.00 20.00     0.179 C 
HETATM   11  C16 KAN  4699       3.062  37.378 239.913  1.00 20.00     0.182 C 
HETATM   12  C15 KAN  4699       3.343  38.222 238.634  1.00 20.00     0.248 C 
HETATM   13  C14 KAN  4699       2.032  38.444 237.851  1.00 20.00     0.206 C 
BRANCH  10  14
HETATM   14  C18 KAN  4699       2.164  35.055 240.561  1.00 20.00     0.198 C 
BRANCH  14  15
HETATM   15  O15 KAN  4699       0.741  35.137 240.862  1.00 20.00    -0.398 OA
ATOM     16  H15 KAN  4699       0.484  34.380 241.376  1.00  0.00     0.209 HD
ENDBRANCH  14  15
ENDBRANCH  10  14
BRANCH  11  17
HETATM   17  O14 KAN  4699       4.265  37.154 240.607  1.00 20.00    -0.391 OA
ATOM     18  H14 KAN  4699       4.077  36.961 241.519  1.00  0.00     0.210 HD
ENDBRANCH  11  17
BRANCH  12  19
HETATM   19  N4  KAN  4699       4.051  39.471 238.939  1.00 20.00    -0.070 N 
ATOM     20  H43 KAN  4699       3.559  40.273 238.546  1.00  0.00     0.274 HD
ATOM     21  H42 KAN  4699       3.976  39.698 239.930  1.00  0.00     0.274 HD
ATOM     22  H41 KAN  4699       5.026  39.462 238.641  1.00  0.00     0.274 HD
ENDBRANCH  12  19
BRANCH  13  23
HETATM   23  O13 KAN  4699       2.288  39.180 236.688  1.00 20.00    -0.388 OA
ATOM     24  H13 KAN  4699       2.883  39.893 236.887  1.00  0.00     0.210 HD
ENDBRANCH  13  23
ENDBRANCH   7   8
ENDBRANCH   2   7
BRANCH   1  25
HETATM   25  N3  KAN  4699       1.929  33.603 236.886  1.00 20.00    -0.072 N 
ATOM     26  H33 KAN  4699       1.760  33.712 237.886  1.00  0.00     0.274 HD
ATOM     27  H32 KAN  4699       1.721  32.609 236.797  1.00  0.00     0.274 HD
ATOM     28  H31 KAN  4699       2.901  33.802 236.650  1.00  0.00     0.274 HD
ENDBRANCH   1  25
BRANCH   3  29
HETATM   29  O10 KAN  4699       1.523  37.693 234.176  1.00 20.00    -0.390 OA
ATOM     30  H10 KAN  4699       0.962  38.455 234.095  1.00  0.00     0.210 HD
ENDBRANCH   3  29
BRANCH   4  31
HETATM   31  O9  KAN  4699      -0.984  36.528 233.017  1.00 20.00    -0.349 OA
BRANCH  31  32
HETATM   32  C1  KAN  4699      -0.754  37.465 231.947  1.00 20.00     0.292 C 
HETATM   33  O5  KAN  4699      -1.096  36.816 230.758  1.00 20.00    -0.349 OA
HETATM   34  C5  KAN  4699      -2.470  36.493 230.513  1.00 20.00     0.181 C 
HETATM   35  C4  KAN  4699      -3.415  37.623 230.800  1.00 20.00     0.180 C 
HETATM   36  C3  KAN  4699      -3.074  38.158 232.173  1.00 20.00     0.183 C 
HETATM   37  C2  KAN  4699      -1.641  38.683 232.158  1.00 20.00     0.204 C 
BRANCH  34  38
HETATM   38  C6  KAN  4699      -2.688  35.920 229.085  1.00 20.00     0.264 C 
BRANCH  38  39
HETATM   39  N1  KAN  4699      -3.201  37.049 228.228  1.00 20.00    -0.077 N 
ATOM     40  H13 KAN  4699      -2.934  36.960 227.248  1.00  0.00     0.274 HD
ATOM     41  H12 KAN  4699      -4.211  37.022 228.092  1.00  0.00     0.274 HD
ATOM     42  H11 KAN  4699      -2.878  37.918 228.654  1.00  0.00     0.274 HD
ENDBRANCH  38  39
ENDBRANCH  34  38
BRANCH  35  43
HETATM   43  O8  KAN  4699      -4.711  37.054 230.798  1.00 20.00    -0.390 OA
ATOM     44  H8  KAN  4699      -5.129  37.182 229.954  1.00  0.00     0.210 HD
ENDBRANCH  35  43
BRANCH  36  45
HETATM   45  O7  KAN  4699      -4.015  39.229 232.461  1.00 20.00    -0.390 OA
ATOM     46  H7  KAN  4699      -4.416  39.549 231.662  1.00  0.00     0.210 HD
ENDBRANCH  36  45
BRANCH  37  47
HETATM   47  O6  KAN  4699      -1.323  39.264 233.452  1.00 20.00    -0.388 OA
ATOM     48  H6  KAN  4699      -0.678  39.949 233.324  1.00  0.00     0.210 HD
ENDBRANCH  37  47
ENDBRANCH  31  32
ENDBRANCH   4  31
BRANCH   5  49
HETATM   49  N2  KAN  4699      -1.275  33.781 233.076  1.00 20.00    -0.072 N 
ATOM     50  H23 KAN  4699      -1.848  33.001 233.399  1.00  0.00     0.274 HD
ATOM     51  H22 KAN  4699      -2.008  34.299 232.590  1.00  0.00     0.274 HD
ATOM     52  H21 KAN  4699      -0.523  33.485 232.453  1.00  0.00     0.274 HD
ENDBRANCH   5  49
TORSDOF 17
ENDMDL
