MODEL 1
REMARK VINA RESULT:      -6.9      0.000      0.000
REMARK  9 active torsions:
REMARK  status: ('A' for Active; 'I' for Inactive)
REMARK    1  A    between atoms: C3_7  and  O2_1 
REMARK    2  A    between atoms: C25_29  and  O3_3 
REMARK    3  A    between atoms: C1_5  and  O1_32 
REMARK    4  A    between atoms: C6_10  and  C7_11 
REMARK    5  A    between atoms: C17_21  and  C20_24 
REMARK    6  A    between atoms: C20_24  and  C22_26 
REMARK    7  A    between atoms: C22_26  and  C23_27 
REMARK    8  A    between atoms: C23_27  and  C24_28 
REMARK    9  A    between atoms: C24_28  and  C25_29 
ROOT
HETATM    1  C7  VDX  7622      -1.442  41.067 230.386  1.00 20.00     0.004 C 
HETATM    2  C8  VDX  7622      -2.312  40.055 230.277  1.00 20.00    -0.075 C 
HETATM    3  C9  VDX  7622      -3.473  40.036 229.294  1.00 20.00     0.034 C 
HETATM    4  C11 VDX  7622      -3.263  38.833 228.349  1.00 20.00     0.005 C 
HETATM    5  C12 VDX  7622      -3.007  37.522 229.142  1.00 20.00     0.010 C 
HETATM    6  C13 VDX  7622      -1.846  37.607 230.171  1.00 20.00    -0.033 C 
HETATM    7  C14 VDX  7622      -2.225  38.820 231.106  1.00 20.00     0.023 C 
HETATM    8  C15 VDX  7622      -1.286  38.746 232.296  1.00 20.00     0.010 C 
HETATM    9  C16 VDX  7622      -1.126  37.211 232.427  1.00 20.00     0.006 C 
HETATM   10  C17 VDX  7622      -1.807  36.485 231.232  1.00 20.00    -0.002 C 
HETATM   11  C18 VDX  7622      -0.462  37.819 229.481  1.00 20.00     0.016 C 
ENDROOT
BRANCH   1  12
HETATM   12  C6  VDX  7622      -1.355  42.317 229.611  1.00 20.00     0.008 C 
HETATM   13  C5  VDX  7622      -0.314  42.795 228.894  1.00 20.00    -0.048 C 
HETATM   14  C10 VDX  7622       0.944  42.085 228.586  1.00 20.00    -0.033 C 
HETATM   15  C4  VDX  7622      -0.448  44.156 228.269  1.00 20.00     0.071 C 
HETATM   16  C1  VDX  7622       2.167  42.980 228.624  1.00 20.00     0.153 C 
HETATM   17  C19 VDX  7622       0.969  40.781 228.158  1.00 20.00     0.022 C 
HETATM   18  C2  VDX  7622       2.042  44.306 227.843  1.00 20.00     0.068 C 
HETATM   19  C3  VDX  7622       0.781  45.072 228.342  1.00 20.00     0.125 C 
BRANCH  16  20
HETATM   20  O1  VDX  7622       3.322  42.255 228.271  1.00 20.00    -0.391 OA
ATOM     21  H1  VDX  7622       3.604  41.665 228.961  1.00  0.00     0.210 HD
ENDBRANCH  16  20
BRANCH  19  22
HETATM   22  O2  VDX  7622       0.996  45.443 229.688  1.00 20.00    -0.395 OA
ATOM     23  H2  VDX  7622       0.205  45.250 230.178  1.00  0.00     0.210 HD
ENDBRANCH  19  22
ENDBRANCH   1  12
BRANCH  10  24
HETATM   24  C20 VDX  7622      -1.028  35.193 230.876  1.00 20.00    -0.014 C 
HETATM   25  C21 VDX  7622      -0.286  34.674 232.158  1.00 20.00     0.010 C 
BRANCH  24  26
HETATM   26  C22 VDX  7622      -1.805  34.152 230.128  1.00 20.00     0.005 C 
BRANCH  26  27
HETATM   27  C23 VDX  7622      -1.034  33.687 228.816  1.00 20.00     0.003 C 
BRANCH  27  28
HETATM   28  C24 VDX  7622       0.229  34.365 228.333  1.00 20.00     0.037 C 
BRANCH  28  29
HETATM   29  C25 VDX  7622       0.191  34.982 226.904  1.00 20.00     0.051 C 
HETATM   30  C27 VDX  7622      -1.212  35.507 226.583  1.00 20.00     0.045 C 
HETATM   31  C26 VDX  7622       0.622  33.993 225.860  1.00 20.00     0.045 C 
BRANCH  29  32
HETATM   32  O3  VDX  7622       0.974  36.151 226.800  1.00 20.00    -0.391 OA
ATOM     33  H3  VDX  7622       0.925  36.691 227.580  1.00  0.00     0.210 HD
ENDBRANCH  29  32
ENDBRANCH  28  29
ENDBRANCH  27  28
ENDBRANCH  26  27
ENDBRANCH  24  26
ENDBRANCH  10  24
TORSDOF 9
ENDMDL
MODEL 2
REMARK VINA RESULT:      -6.9      5.225      7.907
REMARK  9 active torsions:
REMARK  status: ('A' for Active; 'I' for Inactive)
REMARK    1  A    between atoms: C3_7  and  O2_1 
REMARK    2  A    between atoms: C25_29  and  O3_3 
REMARK    3  A    between atoms: C1_5  and  O1_32 
REMARK    4  A    between atoms: C6_10  and  C7_11 
REMARK    5  A    between atoms: C17_21  and  C20_24 
REMARK    6  A    between atoms: C20_24  and  C22_26 
REMARK    7  A    between atoms: C22_26  and  C23_27 
REMARK    8  A    between atoms: C23_27  and  C24_28 
REMARK    9  A    between atoms: C24_28  and  C25_29 
ROOT
HETATM    1  C7  VDX  7622       1.443  36.748 235.041  1.00 20.00     0.004 C 
HETATM    2  C8  VDX  7622       0.189  36.762 234.572  1.00 20.00    -0.075 C 
HETATM    3  C9  VDX  7622      -0.829  37.842 234.905  1.00 20.00     0.034 C 
HETATM    4  C11 VDX  7622      -1.234  38.524 233.580  1.00 20.00     0.005 C 
HETATM    5  C12 VDX  7622      -1.656  37.483 232.508  1.00 20.00     0.010 C 
HETATM    6  C13 VDX  7622      -0.606  36.370 232.241  1.00 20.00    -0.033 C 
HETATM    7  C14 VDX  7622      -0.343  35.717 233.652  1.00 20.00     0.023 C 
HETATM    8  C15 VDX  7622       0.436  34.441 233.390  1.00 20.00     0.010 C 
HETATM    9  C16 VDX  7622      -0.178  34.017 232.034  1.00 20.00     0.006 C 
HETATM   10  C17 VDX  7622      -1.125  35.124 231.490  1.00 20.00    -0.002 C 
HETATM   11  C18 VDX  7622       0.706  36.937 231.613  1.00 20.00     0.016 C 
ENDROOT
BRANCH   1  12
HETATM   12  C6  VDX  7622       2.134  37.725 235.901  1.00 20.00     0.008 C 
HETATM   13  C5  VDX  7622       2.754  37.518 237.084  1.00 20.00    -0.048 C 
HETATM   14  C10 VDX  7622       3.024  36.212 237.722  1.00 20.00    -0.033 C 
HETATM   15  C4  VDX  7622       3.302  38.711 237.816  1.00 20.00     0.071 C 
HETATM   16  C1  VDX  7622       2.853  36.230 239.227  1.00 20.00     0.153 C 
HETATM   17  C19 VDX  7622       3.528  35.142 237.025  1.00 20.00     0.022 C 
HETATM   18  C2  VDX  7622       3.559  37.391 239.961  1.00 20.00     0.068 C 
HETATM   19  C3  VDX  7622       3.096  38.741 239.337  1.00 20.00     0.125 C 
BRANCH  16  20
HETATM   20  O1  VDX  7622       3.176  34.973 239.777  1.00 20.00    -0.391 OA
ATOM     21  H1  VDX  7622       2.674  34.782 240.561  1.00  0.00     0.210 HD
ENDBRANCH  16  20
BRANCH  19  22
HETATM   22  O2  VDX  7622       1.719  38.901 239.608  1.00 20.00    -0.395 OA
ATOM     23  H2  VDX  7622       1.239  38.764 238.800  1.00  0.00     0.210 HD
ENDBRANCH  19  22
ENDBRANCH   1  12
BRANCH  10  24
HETATM   24  C20 VDX  7622      -1.079  35.154 229.940  1.00 20.00    -0.014 C 
HETATM   25  C21 VDX  7622      -0.526  33.780 229.418  1.00 20.00     0.010 C 
BRANCH  24  26
HETATM   26  C22 VDX  7622      -2.328  35.633 229.264  1.00 20.00     0.005 C 
BRANCH  26  27
HETATM   27  C23 VDX  7622      -2.242  37.185 228.923  1.00 20.00     0.003 C 
BRANCH  27  28
HETATM   28  C24 VDX  7622      -3.368  38.147 229.233  1.00 20.00     0.037 C 
BRANCH  28  29
HETATM   29  C25 VDX  7622      -2.962  39.591 229.651  1.00 20.00     0.051 C 
HETATM   30  C27 VDX  7622      -3.520  40.615 228.656  1.00 20.00     0.045 C 
HETATM   31  C26 VDX  7622      -1.471  39.739 229.759  1.00 20.00     0.045 C 
BRANCH  29  32
HETATM   32  O3  VDX  7622      -3.566  39.993 230.860  1.00 20.00    -0.391 OA
ATOM     33  H3  VDX  7622      -3.328  39.433 231.589  1.00  0.00     0.210 HD
ENDBRANCH  29  32
ENDBRANCH  28  29
ENDBRANCH  27  28
ENDBRANCH  26  27
ENDBRANCH  24  26
ENDBRANCH  10  24
TORSDOF 9
ENDMDL
MODEL 3
REMARK VINA RESULT:      -6.8      1.853      8.401
REMARK  9 active torsions:
REMARK  status: ('A' for Active; 'I' for Inactive)
REMARK    1  A    between atoms: C3_7  and  O2_1 
REMARK    2  A    between atoms: C25_29  and  O3_3 
REMARK    3  A    between atoms: C1_5  and  O1_32 
REMARK    4  A    between atoms: C6_10  and  C7_11 
REMARK    5  A    between atoms: C17_21  and  C20_24 
REMARK    6  A    between atoms: C20_24  and  C22_26 
REMARK    7  A    between atoms: C22_26  and  C23_27 
REMARK    8  A    between atoms: C23_27  and  C24_28 
REMARK    9  A    between atoms: C24_28  and  C25_29 
ROOT
HETATM    1  C7  VDX  7622      -2.564  35.652 230.457  1.00 20.00     0.004 C 
HETATM    2  C8  VDX  7622      -2.704  36.807 231.119  1.00 20.00    -0.075 C 
HETATM    3  C9  VDX  7622      -2.284  37.014 232.566  1.00 20.00     0.034 C 
HETATM    4  C11 VDX  7622      -1.204  38.118 232.584  1.00 20.00     0.005 C 
HETATM    5  C12 VDX  7622      -1.670  39.383 231.812  1.00 20.00     0.010 C 
HETATM    6  C13 VDX  7622      -2.139  39.114 230.356  1.00 20.00    -0.033 C 
HETATM    7  C14 VDX  7622      -3.279  38.032 230.494  1.00 20.00     0.023 C 
HETATM    8  C15 VDX  7622      -3.967  37.968 229.142  1.00 20.00     0.010 C 
HETATM    9  C16 VDX  7622      -3.845  39.446 228.700  1.00 20.00     0.006 C 
HETATM   10  C17 VDX  7622      -2.957  40.246 229.696  1.00 20.00    -0.002 C 
HETATM   11  C18 VDX  7622      -0.975  38.614 229.446  1.00 20.00     0.016 C 
ENDROOT
BRANCH   1  12
HETATM   12  C6  VDX  7622      -1.969  34.380 230.906  1.00 20.00     0.008 C 
HETATM   13  C5  VDX  7622      -0.919  33.709 230.384  1.00 20.00    -0.048 C 
HETATM   14  C10 VDX  7622      -0.010  34.184 229.320  1.00 20.00    -0.033 C 
HETATM   15  C4  VDX  7622      -0.567  32.372 230.973  1.00 20.00     0.071 C 
HETATM   16  C1  VDX  7622       0.405  33.096 228.351  1.00 20.00     0.153 C 
HETATM   17  C19 VDX  7622       0.521  35.451 229.315  1.00 20.00     0.022 C 
HETATM   18  C2  VDX  7622       0.903  31.786 228.998  1.00 20.00     0.068 C 
HETATM   19  C3  VDX  7622      -0.182  31.263 229.985  1.00 20.00     0.125 C 
BRANCH  16  20
HETATM   20  O1  VDX  7622       1.310  33.602 227.396  1.00 20.00    -0.391 OA
ATOM     21  H1  VDX  7622       2.188  33.257 227.512  1.00  0.00     0.210 HD
ENDBRANCH  16  20
BRANCH  19  22
HETATM   22  O2  VDX  7622      -1.324  30.904 229.233  1.00 20.00    -0.395 OA
ATOM     23  H2  VDX  7622      -2.008  30.645 229.839  1.00  0.00     0.210 HD
ENDBRANCH  19  22
ENDBRANCH   1  12
BRANCH  10  24
HETATM   24  C20 VDX  7622      -2.170  41.350 228.943  1.00 20.00    -0.014 C 
HETATM   25  C21 VDX  7622      -3.071  41.929 227.796  1.00 20.00     0.010 C 
BRANCH  24  26
HETATM   26  C22 VDX  7622      -1.507  42.378 229.809  1.00 20.00     0.005 C 
BRANCH  26  27
HETATM   27  C23 VDX  7622       0.028  42.554 229.427  1.00 20.00     0.003 C 
BRANCH  27  28
HETATM   28  C24 VDX  7622       0.544  43.760 228.674  1.00 20.00     0.037 C 
BRANCH  28  29
HETATM   29  C25 VDX  7622       1.357  44.803 229.493  1.00 20.00     0.051 C 
HETATM   30  C27 VDX  7622       1.052  46.225 229.007  1.00 20.00     0.045 C 
HETATM   31  C26 VDX  7622       2.834  44.541 229.418  1.00 20.00     0.045 C 
BRANCH  29  32
HETATM   32  O3  VDX  7622       0.955  44.861 230.844  1.00 20.00    -0.391 OA
ATOM     33  H3  VDX  7622       1.131  44.052 231.310  1.00  0.00     0.210 HD
ENDBRANCH  29  32
ENDBRANCH  28  29
ENDBRANCH  27  28
ENDBRANCH  26  27
ENDBRANCH  24  26
ENDBRANCH  10  24
TORSDOF 9
ENDMDL
MODEL 4
REMARK VINA RESULT:      -6.7      5.031      7.399
REMARK  9 active torsions:
REMARK  status: ('A' for Active; 'I' for Inactive)
REMARK    1  A    between atoms: C3_7  and  O2_1 
REMARK    2  A    between atoms: C25_29  and  O3_3 
REMARK    3  A    between atoms: C1_5  and  O1_32 
REMARK    4  A    between atoms: C6_10  and  C7_11 
REMARK    5  A    between atoms: C17_21  and  C20_24 
REMARK    6  A    between atoms: C20_24  and  C22_26 
REMARK    7  A    between atoms: C22_26  and  C23_27 
REMARK    8  A    between atoms: C23_27  and  C24_28 
REMARK    9  A    between atoms: C24_28  and  C25_29 
ROOT
HETATM    1  C7  VDX  7622       1.334  36.635 235.031  1.00 20.00     0.004 C 
HETATM    2  C8  VDX  7622       0.140  36.665 234.425  1.00 20.00    -0.075 C 
HETATM    3  C9  VDX  7622      -0.821  37.841 234.502  1.00 20.00     0.034 C 
HETATM    4  C11 VDX  7622      -1.032  38.365 233.064  1.00 20.00     0.005 C 
HETATM    5  C12 VDX  7622      -1.419  37.218 232.091  1.00 20.00     0.010 C 
HETATM    6  C13 VDX  7622      -0.435  36.016 232.086  1.00 20.00    -0.033 C 
HETATM    7  C14 VDX  7622      -0.371  35.542 233.590  1.00 20.00     0.023 C 
HETATM    8  C15 VDX  7622       0.330  34.196 233.579  1.00 20.00     0.010 C 
HETATM    9  C16 VDX  7622      -0.169  33.634 232.226  1.00 20.00     0.006 C 
HETATM   10  C17 VDX  7622      -0.967  34.716 231.444  1.00 20.00    -0.002 C 
HETATM   11  C18 VDX  7622       0.974  36.411 231.545  1.00 20.00     0.016 C 
ENDROOT
BRANCH   1  12
HETATM   12  C6  VDX  7622       2.005  37.672 235.834  1.00 20.00     0.008 C 
HETATM   13  C5  VDX  7622       2.660  37.538 237.008  1.00 20.00    -0.048 C 
HETATM   14  C10 VDX  7622       2.999  36.272 237.689  1.00 20.00    -0.033 C 
HETATM   15  C4  VDX  7622       3.176  38.781 237.679  1.00 20.00     0.071 C 
HETATM   16  C1  VDX  7622       2.864  36.343 239.197  1.00 20.00     0.153 C 
HETATM   17  C19 VDX  7622       3.530  35.195 237.023  1.00 20.00     0.022 C 
HETATM   18  C2  VDX  7622       3.539  37.560 239.866  1.00 20.00     0.068 C 
HETATM   19  C3  VDX  7622       3.006  38.864 239.201  1.00 20.00     0.125 C 
BRANCH  16  20
HETATM   20  O1  VDX  7622       3.251  35.123 239.787  1.00 20.00    -0.391 OA
ATOM     21  H1  VDX  7622       4.186  35.084 239.957  1.00  0.00     0.210 HD
ENDBRANCH  16  20
BRANCH  19  22
HETATM   22  O2  VDX  7622       1.630  38.980 239.502  1.00 20.00    -0.395 OA
ATOM     23  H2  VDX  7622       1.528  39.646 240.171  1.00  0.00     0.210 HD
ENDBRANCH  19  22
ENDBRANCH   1  12
BRANCH  10  24
HETATM   24  C20 VDX  7622      -0.758  34.536 229.918  1.00 20.00    -0.014 C 
HETATM   25  C21 VDX  7622      -0.348  33.048 229.630  1.00 20.00     0.010 C 
BRANCH  24  26
HETATM   26  C22 VDX  7622      -1.852  35.072 229.046  1.00 20.00     0.005 C 
BRANCH  26  27
HETATM   27  C23 VDX  7622      -1.276  36.048 227.929  1.00 20.00     0.003 C 
BRANCH  27  28
HETATM   28  C24 VDX  7622       0.143  35.945 227.415  1.00 20.00     0.037 C 
BRANCH  28  29
HETATM   29  C25 VDX  7622       0.350  35.180 226.075  1.00 20.00     0.051 C 
HETATM   30  C27 VDX  7622      -0.891  35.311 225.185  1.00 20.00     0.045 C 
HETATM   31  C26 VDX  7622       0.666  33.730 226.306  1.00 20.00     0.045 C 
BRANCH  29  32
HETATM   32  O3  VDX  7622       1.353  35.760 225.272  1.00 20.00    -0.391 OA
ATOM     33  H3  VDX  7622       2.074  36.107 225.784  1.00  0.00     0.210 HD
ENDBRANCH  29  32
ENDBRANCH  28  29
ENDBRANCH  27  28
ENDBRANCH  26  27
ENDBRANCH  24  26
ENDBRANCH  10  24
TORSDOF 9
ENDMDL
MODEL 5
REMARK VINA RESULT:      -6.6      3.631      8.173
REMARK  9 active torsions:
REMARK  status: ('A' for Active; 'I' for Inactive)
REMARK    1  A    between atoms: C3_7  and  O2_1 
REMARK    2  A    between atoms: C25_29  and  O3_3 
REMARK    3  A    between atoms: C1_5  and  O1_32 
REMARK    4  A    between atoms: C6_10  and  C7_11 
REMARK    5  A    between atoms: C17_21  and  C20_24 
REMARK    6  A    between atoms: C20_24  and  C22_26 
REMARK    7  A    between atoms: C22_26  and  C23_27 
REMARK    8  A    between atoms: C23_27  and  C24_28 
REMARK    9  A    between atoms: C24_28  and  C25_29 
ROOT
HETATM    1  C7  VDX  7622       0.203  35.656 233.027  1.00 20.00     0.004 C 
HETATM    2  C8  VDX  7622      -0.914  35.732 232.292  1.00 20.00    -0.075 C 
HETATM    3  C9  VDX  7622      -2.238  35.101 232.692  1.00 20.00     0.034 C 
HETATM    4  C11 VDX  7622      -3.273  36.238 232.834  1.00 20.00     0.005 C 
HETATM    5  C12 VDX  7622      -3.294  37.150 231.576  1.00 20.00     0.010 C 
HETATM    6  C13 VDX  7622      -1.909  37.729 231.176  1.00 20.00    -0.033 C 
HETATM    7  C14 VDX  7622      -0.981  36.466 230.997  1.00 20.00     0.023 C 
HETATM    8  C15 VDX  7622       0.282  36.962 230.316  1.00 20.00     0.010 C 
HETATM    9  C16 VDX  7622      -0.307  38.081 229.423  1.00 20.00     0.006 C 
HETATM   10  C17 VDX  7622      -1.812  38.307 229.747  1.00 20.00    -0.002 C 
HETATM   11  C18 VDX  7622      -1.348  38.710 232.252  1.00 20.00     0.016 C 
ENDROOT
BRANCH   1  12
HETATM   12  C6  VDX  7622       0.419  35.027 234.342  1.00 20.00     0.008 C 
HETATM   13  C5  VDX  7622       1.040  35.536 235.429  1.00 20.00    -0.048 C 
HETATM   14  C10 VDX  7622       1.514  36.925 235.605  1.00 20.00    -0.033 C 
HETATM   15  C4  VDX  7622       1.216  34.646 236.628  1.00 20.00     0.071 C 
HETATM   16  C1  VDX  7622       2.834  37.023 236.343  1.00 20.00     0.153 C 
HETATM   17  C19 VDX  7622       0.750  38.013 235.265  1.00 20.00     0.022 C 
HETATM   18  C2  VDX  7622       2.923  36.210 237.652  1.00 20.00     0.068 C 
HETATM   19  C3  VDX  7622       2.567  34.724 237.351  1.00 20.00     0.125 C 
BRANCH  16  20
HETATM   20  O1  VDX  7622       3.202  38.371 236.522  1.00 20.00    -0.391 OA
ATOM     21  H1  VDX  7622       3.053  38.672 237.412  1.00  0.00     0.210 HD
ENDBRANCH  16  20
BRANCH  19  22
HETATM   22  O2  VDX  7622       3.569  34.194 236.507  1.00 20.00    -0.395 OA
ATOM     23  H2  VDX  7622       3.933  34.908 235.996  1.00  0.00     0.210 HD
ENDBRANCH  19  22
ENDBRANCH   1  12
BRANCH  10  24
HETATM   24  C20 VDX  7622      -2.182  39.800 229.555  1.00 20.00    -0.014 C 
HETATM   25  C21 VDX  7622      -3.734  39.968 229.719  1.00 20.00     0.010 C 
BRANCH  24  26
HETATM   26  C22 VDX  7622      -1.353  40.778 230.330  1.00 20.00     0.005 C 
BRANCH  26  27
HETATM   27  C23 VDX  7622      -0.663  41.843 229.369  1.00 20.00     0.003 C 
BRANCH  27  28
HETATM   28  C24 VDX  7622      -0.642  43.323 229.679  1.00 20.00     0.037 C 
BRANCH  28  29
HETATM   29  C25 VDX  7622       0.749  44.021 229.676  1.00 20.00     0.051 C 
HETATM   30  C27 VDX  7622       0.739  45.237 228.743  1.00 20.00     0.045 C 
HETATM   31  C26 VDX  7622       1.845  43.075 229.274  1.00 20.00     0.045 C 
BRANCH  29  32
HETATM   32  O3  VDX  7622       1.063  44.606 230.920  1.00 20.00    -0.391 OA
ATOM     33  H3  VDX  7622       1.851  44.241 231.305  1.00  0.00     0.210 HD
ENDBRANCH  29  32
ENDBRANCH  28  29
ENDBRANCH  27  28
ENDBRANCH  26  27
ENDBRANCH  24  26
ENDBRANCH  10  24
TORSDOF 9
ENDMDL
MODEL 6
REMARK VINA RESULT:      -6.6      4.498      7.665
REMARK  9 active torsions:
REMARK  status: ('A' for Active; 'I' for Inactive)
REMARK    1  A    between atoms: C3_7  and  O2_1 
REMARK    2  A    between atoms: C25_29  and  O3_3 
REMARK    3  A    between atoms: C1_5  and  O1_32 
REMARK    4  A    between atoms: C6_10  and  C7_11 
REMARK    5  A    between atoms: C17_21  and  C20_24 
REMARK    6  A    between atoms: C20_24  and  C22_26 
REMARK    7  A    between atoms: C22_26  and  C23_27 
REMARK    8  A    between atoms: C23_27  and  C24_28 
REMARK    9  A    between atoms: C24_28  and  C25_29 
ROOT
HETATM    1  C7  VDX  7622      -2.307  35.998 231.808  1.00 20.00     0.004 C 
HETATM    2  C8  VDX  7622      -1.060  35.870 232.280  1.00 20.00    -0.075 C 
HETATM    3  C9  VDX  7622       0.172  35.738 231.398  1.00 20.00     0.034 C 
HETATM    4  C11 VDX  7622       1.093  36.940 231.702  1.00 20.00     0.005 C 
HETATM    5  C12 VDX  7622       1.347  37.092 233.227  1.00 20.00     0.010 C 
HETATM    6  C13 VDX  7622       0.058  37.170 234.091  1.00 20.00    -0.033 C 
HETATM    7  C14 VDX  7622      -0.744  35.859 233.736  1.00 20.00     0.023 C 
HETATM    8  C15 VDX  7622      -1.847  35.744 234.772  1.00 20.00     0.010 C 
HETATM    9  C16 VDX  7622      -1.131  36.344 236.006  1.00 20.00     0.006 C 
HETATM   10  C17 VDX  7622       0.252  36.934 235.606  1.00 20.00    -0.002 C 
HETATM   11  C18 VDX  7622      -0.774  38.455 233.793  1.00 20.00     0.016 C 
ENDROOT
BRANCH   1  12
HETATM   12  C6  VDX  7622      -2.778  36.085 230.414  1.00 20.00     0.008 C 
HETATM   13  C5  VDX  7622      -3.182  37.176 229.726  1.00 20.00    -0.048 C 
HETATM   14  C10 VDX  7622      -3.091  38.582 230.171  1.00 20.00    -0.033 C 
HETATM   15  C4  VDX  7622      -3.712  36.980 228.333  1.00 20.00     0.071 C 
HETATM   16  C1  VDX  7622      -4.290  39.419 229.771  1.00 20.00     0.153 C 
HETATM   17  C19 VDX  7622      -1.961  39.101 230.752  1.00 20.00     0.022 C 
HETATM   18  C2  VDX  7622      -4.713  39.305 228.291  1.00 20.00     0.068 C 
HETATM   19  C3  VDX  7622      -4.947  37.804 227.945  1.00 20.00     0.125 C 
BRANCH  16  20
HETATM   20  O1  VDX  7622      -4.117  40.757 230.179  1.00 20.00    -0.391 OA
ATOM     21  H1  VDX  7622      -3.246  40.922 230.521  1.00  0.00     0.210 HD
ENDBRANCH  16  20
BRANCH  19  22
HETATM   22  O2  VDX  7622      -6.056  37.348 228.693  1.00 20.00    -0.395 OA
ATOM     23  H2  VDX  7622      -6.158  36.417 228.534  1.00  0.00     0.210 HD
ENDBRANCH  19  22
ENDBRANCH   1  12
BRANCH  10  24
HETATM   24  C20 VDX  7622       0.582  38.168 236.484  1.00 20.00    -0.014 C 
HETATM   25  C21 VDX  7622      -0.142  38.018 237.869  1.00 20.00     0.010 C 
BRANCH  24  26
HETATM   26  C22 VDX  7622       2.031  38.538 236.563  1.00 20.00     0.005 C 
BRANCH  26  27
HETATM   27  C23 VDX  7622       2.959  37.244 236.564  1.00 20.00     0.003 C 
BRANCH  27  28
HETATM   28  C24 VDX  7622       3.306  36.495 237.832  1.00 20.00     0.037 C 
BRANCH  28  29
HETATM   29  C25 VDX  7622       2.861  35.006 237.911  1.00 20.00     0.051 C 
HETATM   30  C27 VDX  7622       2.876  34.366 236.518  1.00 20.00     0.045 C 
HETATM   31  C26 VDX  7622       1.498  34.865 238.526  1.00 20.00     0.045 C 
BRANCH  29  32
HETATM   32  O3  VDX  7622       3.783  34.204 238.614  1.00 20.00    -0.391 OA
ATOM     33  H3  VDX  7622       3.862  33.332 238.245  1.00  0.00     0.210 HD
ENDBRANCH  29  32
ENDBRANCH  28  29
ENDBRANCH  27  28
ENDBRANCH  26  27
ENDBRANCH  24  26
ENDBRANCH  10  24
TORSDOF 9
ENDMDL
MODEL 7
REMARK VINA RESULT:      -6.5      4.547      7.673
REMARK  9 active torsions:
REMARK  status: ('A' for Active; 'I' for Inactive)
REMARK    1  A    between atoms: C3_7  and  O2_1 
REMARK    2  A    between atoms: C25_29  and  O3_3 
REMARK    3  A    between atoms: C1_5  and  O1_32 
REMARK    4  A    between atoms: C6_10  and  C7_11 
REMARK    5  A    between atoms: C17_21  and  C20_24 
REMARK    6  A    between atoms: C20_24  and  C22_26 
REMARK    7  A    between atoms: C22_26  and  C23_27 
REMARK    8  A    between atoms: C23_27  and  C24_28 
REMARK    9  A    between atoms: C24_28  and  C25_29 
ROOT
HETATM    1  C7  VDX  7622      -0.131  36.692 234.577  1.00 20.00     0.004 C 
HETATM    2  C8  VDX  7622      -0.207  37.075 233.296  1.00 20.00    -0.075 C 
HETATM    3  C9  VDX  7622       0.967  37.049 232.330  1.00 20.00     0.034 C 
HETATM    4  C11 VDX  7622       0.602  36.089 231.177  1.00 20.00     0.005 C 
HETATM    5  C12 VDX  7622      -0.786  36.432 230.568  1.00 20.00     0.010 C 
HETATM    6  C13 VDX  7622      -1.944  36.498 231.601  1.00 20.00    -0.033 C 
HETATM    7  C14 VDX  7622      -1.471  37.557 232.670  1.00 20.00     0.023 C 
HETATM    8  C15 VDX  7622      -2.689  37.875 233.518  1.00 20.00     0.010 C 
HETATM    9  C16 VDX  7622      -3.807  37.749 232.455  1.00 20.00     0.006 C 
HETATM   10  C17 VDX  7622      -3.233  37.200 231.118  1.00 20.00    -0.002 C 
HETATM   11  C18 VDX  7622      -2.233  35.110 232.252  1.00 20.00     0.016 C 
ENDROOT
BRANCH   1  12
HETATM   12  C6  VDX  7622       1.013  36.142 235.324  1.00 20.00     0.008 C 
HETATM   13  C5  VDX  7622       1.477  36.501 236.542  1.00 20.00    -0.048 C 
HETATM   14  C10 VDX  7622       0.835  37.435 237.490  1.00 20.00    -0.033 C 
HETATM   15  C4  VDX  7622       2.733  35.845 237.045  1.00 20.00     0.071 C 
HETATM   16  C1  VDX  7622       1.822  38.319 238.227  1.00 20.00     0.153 C 
HETATM   17  C19 VDX  7622      -0.506  37.389 237.776  1.00 20.00     0.022 C 
HETATM   18  C2  VDX  7622       3.024  37.585 238.860  1.00 20.00     0.068 C 
HETATM   19  C3  VDX  7622       3.745  36.750 237.760  1.00 20.00     0.125 C 
BRANCH  16  20
HETATM   20  O1  VDX  7622       1.152  39.146 239.150  1.00 20.00    -0.391 OA
ATOM     21  H1  VDX  7622       0.783  38.655 239.875  1.00  0.00     0.210 HD
ENDBRANCH  16  20
BRANCH  19  22
HETATM   22  O2  VDX  7622       4.299  37.648 236.820  1.00 20.00    -0.395 OA
ATOM     23  H2  VDX  7622       4.327  37.212 235.976  1.00  0.00     0.210 HD
ENDBRANCH  19  22
ENDBRANCH   1  12
BRANCH  10  24
HETATM   24  C20 VDX  7622      -4.294  36.327 230.399  1.00 20.00    -0.014 C 
HETATM   25  C21 VDX  7622      -5.537  36.153 231.341  1.00 20.00     0.010 C 
BRANCH  24  26
HETATM   26  C22 VDX  7622      -4.617  36.728 228.991  1.00 20.00     0.005 C 
BRANCH  26  27
HETATM   27  C23 VDX  7622      -4.826  38.302 228.872  1.00 20.00     0.003 C 
BRANCH  27  28
HETATM   28  C24 VDX  7622      -3.795  39.212 228.241  1.00 20.00     0.037 C 
BRANCH  28  29
HETATM   29  C25 VDX  7622      -3.301  40.413 229.099  1.00 20.00     0.051 C 
HETATM   30  C27 VDX  7622      -3.167  41.671 228.235  1.00 20.00     0.045 C 
HETATM   31  C26 VDX  7622      -1.995  40.112 229.775  1.00 20.00     0.045 C 
BRANCH  29  32
HETATM   32  O3  VDX  7622      -4.251  40.815 230.061  1.00 20.00    -0.391 OA
ATOM     33  H3  VDX  7622      -5.105  40.425 229.914  1.00  0.00     0.210 HD
ENDBRANCH  29  32
ENDBRANCH  28  29
ENDBRANCH  27  28
ENDBRANCH  26  27
ENDBRANCH  24  26
ENDBRANCH  10  24
TORSDOF 9
ENDMDL
MODEL 8
REMARK VINA RESULT:      -6.5      4.314      7.065
REMARK  9 active torsions:
REMARK  status: ('A' for Active; 'I' for Inactive)
REMARK    1  A    between atoms: C3_7  and  O2_1 
REMARK    2  A    between atoms: C25_29  and  O3_3 
REMARK    3  A    between atoms: C1_5  and  O1_32 
REMARK    4  A    between atoms: C6_10  and  C7_11 
REMARK    5  A    between atoms: C17_21  and  C20_24 
REMARK    6  A    between atoms: C20_24  and  C22_26 
REMARK    7  A    between atoms: C22_26  and  C23_27 
REMARK    8  A    between atoms: C23_27  and  C24_28 
REMARK    9  A    between atoms: C24_28  and  C25_29 
ROOT
HETATM    1  C7  VDX  7622      -3.093  37.017 230.906  1.00 20.00     0.004 C 
HETATM    2  C8  VDX  7622      -2.037  36.277 231.268  1.00 20.00    -0.075 C 
HETATM    3  C9  VDX  7622      -0.950  35.820 230.308  1.00 20.00     0.034 C 
HETATM    4  C11 VDX  7622       0.385  36.425 230.793  1.00 20.00     0.005 C 
HETATM    5  C12 VDX  7622       0.628  36.136 232.299  1.00 20.00     0.010 C 
HETATM    6  C13 VDX  7622      -0.532  36.573 233.235  1.00 20.00    -0.033 C 
HETATM    7  C14 VDX  7622      -1.805  35.831 232.672  1.00 20.00     0.023 C 
HETATM    8  C15 VDX  7622      -2.886  35.985 233.726  1.00 20.00     0.010 C 
HETATM    9  C16 VDX  7622      -2.024  35.954 235.012  1.00 20.00     0.006 C 
HETATM   10  C17 VDX  7622      -0.509  35.969 234.657  1.00 20.00    -0.002 C 
HETATM   11  C18 VDX  7622      -0.724  38.121 233.251  1.00 20.00     0.016 C 
ENDROOT
BRANCH   1  12
HETATM   12  C6  VDX  7622      -3.434  37.582 229.588  1.00 20.00     0.008 C 
HETATM   13  C5  VDX  7622      -3.153  38.809 229.098  1.00 20.00    -0.048 C 
HETATM   14  C10 VDX  7622      -2.285  39.830 229.721  1.00 20.00    -0.033 C 
HETATM   15  C4  VDX  7622      -3.703  39.178 227.748  1.00 20.00     0.071 C 
HETATM   16  C1  VDX  7622      -2.802  41.245 229.555  1.00 20.00     0.153 C 
HETATM   17  C19 VDX  7622      -1.058  39.527 230.257  1.00 20.00     0.022 C 
HETATM   18  C2  VDX  7622      -3.218  41.634 228.120  1.00 20.00     0.068 C 
HETATM   19  C3  VDX  7622      -4.258  40.600 227.595  1.00 20.00     0.125 C 
BRANCH  16  20
HETATM   20  O1  VDX  7622      -1.905  42.170 230.124  1.00 20.00    -0.391 OA
ATOM     21  H1  VDX  7622      -2.171  42.445 230.994  1.00  0.00     0.210 HD
ENDBRANCH  16  20
BRANCH  19  22
HETATM   22  O2  VDX  7622      -5.430  40.720 228.376  1.00 20.00    -0.395 OA
ATOM     23  H2  VDX  7622      -6.072  41.206 227.872  1.00  0.00     0.210 HD
ENDBRANCH  19  22
ENDBRANCH   1  12
BRANCH  10  24
HETATM   24  C20 VDX  7622       0.287  36.735 235.745  1.00 20.00    -0.014 C 
HETATM   25  C21 VDX  7622      -0.595  36.849 237.039  1.00 20.00     0.010 C 
BRANCH  24  26
HETATM   26  C22 VDX  7622       1.690  36.263 235.974  1.00 20.00     0.005 C 
BRANCH  26  27
HETATM   27  C23 VDX  7622       2.684  37.487 236.192  1.00 20.00     0.003 C 
BRANCH  27  28
HETATM   28  C24 VDX  7622       3.569  37.607 237.413  1.00 20.00     0.037 C 
BRANCH  28  29
HETATM   29  C25 VDX  7622       3.125  38.625 238.503  1.00 20.00     0.051 C 
HETATM   30  C27 VDX  7622       2.904  37.916 239.844  1.00 20.00     0.045 C 
HETATM   31  C26 VDX  7622       1.879  39.362 238.101  1.00 20.00     0.045 C 
BRANCH  29  32
HETATM   32  O3  VDX  7622       4.140  39.551 238.822  1.00 20.00    -0.391 OA
ATOM     33  H3  VDX  7622       4.844  39.159 239.325  1.00  0.00     0.210 HD
ENDBRANCH  29  32
ENDBRANCH  28  29
ENDBRANCH  27  28
ENDBRANCH  26  27
ENDBRANCH  24  26
ENDBRANCH  10  24
TORSDOF 9
ENDMDL
MODEL 9
REMARK VINA RESULT:      -6.5      4.203      7.201
REMARK  9 active torsions:
REMARK  status: ('A' for Active; 'I' for Inactive)
REMARK    1  A    between atoms: C3_7  and  O2_1 
REMARK    2  A    between atoms: C25_29  and  O3_3 
REMARK    3  A    between atoms: C1_5  and  O1_32 
REMARK    4  A    between atoms: C6_10  and  C7_11 
REMARK    5  A    between atoms: C17_21  and  C20_24 
REMARK    6  A    between atoms: C20_24  and  C22_26 
REMARK    7  A    between atoms: C22_26  and  C23_27 
REMARK    8  A    between atoms: C23_27  and  C24_28 
REMARK    9  A    between atoms: C24_28  and  C25_29 
ROOT
HETATM    1  C7  VDX  7622       0.904  37.032 233.210  1.00 20.00     0.004 C 
HETATM    2  C8  VDX  7622      -0.407  37.026 232.936  1.00 20.00    -0.075 C 
HETATM    3  C9  VDX  7622      -1.437  37.845 233.699  1.00 20.00     0.034 C 
HETATM    4  C11 VDX  7622      -2.100  38.812 232.693  1.00 20.00     0.005 C 
HETATM    5  C12 VDX  7622      -2.609  38.063 231.432  1.00 20.00     0.010 C 
HETATM    6  C13 VDX  7622      -1.534  37.198 230.718  1.00 20.00    -0.033 C 
HETATM    7  C14 VDX  7622      -0.999  36.219 231.833  1.00 20.00     0.023 C 
HETATM    8  C15 VDX  7622      -0.178  35.165 231.112  1.00 20.00     0.010 C 
HETATM    9  C16 VDX  7622      -0.968  35.060 229.784  1.00 20.00     0.006 C 
HETATM   10  C17 VDX  7622      -2.071  36.154 229.714  1.00 20.00    -0.002 C 
HETATM   11  C18 VDX  7622      -0.387  38.066 230.113  1.00 20.00     0.016 C 
ENDROOT
BRANCH   1  12
HETATM   12  C6  VDX  7622       1.648  37.810 234.216  1.00 20.00     0.008 C 
HETATM   13  C5  VDX  7622       1.574  37.737 235.564  1.00 20.00    -0.048 C 
HETATM   14  C10 VDX  7622       0.833  36.731 236.353  1.00 20.00    -0.033 C 
HETATM   15  C4  VDX  7622       2.376  38.718 236.373  1.00 20.00     0.071 C 
HETATM   16  C1  VDX  7622       0.168  37.304 237.588  1.00 20.00     0.153 C 
HETATM   17  C19 VDX  7622       0.880  35.389 236.067  1.00 20.00     0.022 C 
HETATM   18  C2  VDX  7622       1.071  38.188 238.476  1.00 20.00     0.068 C 
HETATM   19  C3  VDX  7622       1.686  39.322 237.604  1.00 20.00     0.125 C 
BRANCH  16  20
HETATM   20  O1  VDX  7622      -0.475  36.287 238.321  1.00 20.00    -0.391 OA
ATOM     21  H1  VDX  7622      -1.077  35.781 237.787  1.00  0.00     0.210 HD
ENDBRANCH  16  20
BRANCH  19  22
HETATM   22  O2  VDX  7622       0.636  40.163 237.172  1.00 20.00    -0.395 OA
ATOM     23  H2  VDX  7622       1.002  40.818 236.589  1.00  0.00     0.210 HD
ENDBRANCH  19  22
ENDBRANCH   1  12
BRANCH  10  24
HETATM   24  C20 VDX  7622      -2.277  36.613 228.248  1.00 20.00    -0.014 C 
HETATM   25  C21 VDX  7622      -1.311  35.798 227.316  1.00 20.00     0.010 C 
BRANCH  24  26
HETATM   26  C22 VDX  7622      -3.700  36.679 227.783  1.00 20.00     0.005 C 
BRANCH  26  27
HETATM   27  C23 VDX  7622      -4.371  38.070 228.169  1.00 20.00     0.003 C 
BRANCH  27  28
HETATM   28  C24 VDX  7622      -4.335  39.271 227.250  1.00 20.00     0.037 C 
BRANCH  28  29
HETATM   29  C25 VDX  7622      -4.537  40.665 227.910  1.00 20.00     0.051 C 
HETATM   30  C27 VDX  7622      -3.818  41.752 227.103  1.00 20.00     0.045 C 
HETATM   31  C26 VDX  7622      -4.059  40.681 229.333  1.00 20.00     0.045 C 
BRANCH  29  32
HETATM   32  O3  VDX  7622      -5.879  41.098 227.857  1.00 20.00    -0.391 OA
ATOM     33  H3  VDX  7622      -6.411  40.716 228.545  1.00  0.00     0.210 HD
ENDBRANCH  29  32
ENDBRANCH  28  29
ENDBRANCH  27  28
ENDBRANCH  26  27
ENDBRANCH  24  26
ENDBRANCH  10  24
TORSDOF 9
ENDMDL
