MODEL 1
REMARK VINA RESULT:      -8.3      0.000      0.000
REMARK  13 active torsions:
REMARK  status: ('A' for Active; 'I' for Inactive)
REMARK    1  A    between atoms: CAH_13  and  CBG_12 
REMARK    2  A    between atoms: CAG_14  and  CBF_15 
REMARK    3  A    between atoms: CBI_20  and  CBM_21 
REMARK    4  A    between atoms: CAW_31  and  CBM_21 
REMARK    5  A    between atoms: CBM_21  and  SBC_22 
REMARK    6  A    between atoms: CAZ_23  and  SBC_22 
REMARK    7  A    between atoms: CAZ_23  and  CBO_24 
REMARK    8  A    between atoms: CBA_27  and  CBO_24 
REMARK    9  A    between atoms: CBA_27  and  CBD_28 
REMARK   10  A    between atoms: CAV_32  and  CAW_31 
REMARK   11  A    between atoms: CAV_32  and  CBH_33 
REMARK   12  A    between atoms: CBJ_38  and  CBN_39 
REMARK   13  A    between atoms: CBN_39  and  OAE_42 
ROOT
HETATM    1  CBM MTK  5352      -0.826  36.154 235.999  1.00 20.00     0.080 C 
ENDROOT
BRANCH   1   2
HETATM    2  CAW MTK  5352       0.498  36.396 235.315  1.00 20.00     0.025 C 
BRANCH   2   3
HETATM    3  CAV MTK  5352       1.019  35.196 234.556  1.00 20.00     0.040 C 
BRANCH   3   4
HETATM    4  CBH MTK  5352       0.619  35.386 233.085  1.00 20.00    -0.049 A 
HETATM    5  CAM MTK  5352       1.057  36.625 232.550  1.00 20.00     0.007 A 
HETATM    6  CAI MTK  5352       0.793  36.992 231.228  1.00 20.00     0.001 A 
HETATM    7  CAJ MTK  5352       0.072  36.119 230.393  1.00 20.00     0.001 A 
HETATM    8  CAP MTK  5352      -0.381  34.873 230.891  1.00 20.00     0.011 A 
HETATM    9  CBJ MTK  5352      -0.131  34.459 232.232  1.00 20.00    -0.019 A 
BRANCH   9  10
HETATM   10  CBN MTK  5352      -0.699  33.022 232.669  1.00 20.00     0.078 C 
HETATM   11  CAA MTK  5352      -1.777  33.081 233.771  1.00 20.00     0.051 C 
HETATM   12  CAB MTK  5352      -1.267  32.299 231.446  1.00 20.00     0.051 C 
BRANCH  10  13
HETATM   13  OAE MTK  5352       0.361  32.214 233.199  1.00 20.00    -0.386 OA
ATOM     14  HAE MTK  5352       0.922  32.005 232.462  1.00  0.00     0.211 HD
ENDBRANCH  10  13
ENDBRANCH   9  10
ENDBRANCH   3   4
ENDBRANCH   2   3
ENDBRANCH   1   2
BRANCH   1  15
HETATM   15  CBI MTK  5352      -1.906  36.776 235.125  1.00 20.00    -0.043 A 
HETATM   16  CAN MTK  5352      -3.196  36.204 235.169  1.00 20.00     0.008 A 
HETATM   17  CAK MTK  5352      -4.187  36.659 234.268  1.00 20.00     0.001 A 
HETATM   18  CAL MTK  5352      -3.888  37.679 233.335  1.00 20.00     0.011 A 
HETATM   19  CBF MTK  5352      -2.599  38.266 233.295  1.00 20.00    -0.036 A 
HETATM   20  CAT MTK  5352      -1.606  37.814 234.199  1.00 20.00     0.019 A 
BRANCH  19  21
HETATM   21  CAG MTK  5352      -2.369  39.273 232.350  1.00 20.00     0.013 C 
HETATM   22  CAH MTK  5352      -2.495  39.118 230.961  1.00 20.00     0.030 C 
BRANCH  22  23
HETATM   23  CBG MTK  5352      -2.289  40.154 230.047  1.00 20.00     0.032 A 
HETATM   24  CAQ MTK  5352      -3.277  40.569 229.097  1.00 20.00     0.030 A 
HETATM   25  CAS MTK  5352      -2.967  41.631 228.203  1.00 20.00     0.016 A 
HETATM   26  CBK MTK  5352      -1.693  42.266 228.264  1.00 20.00    -0.009 A 
HETATM   27  CAR MTK  5352      -1.347  43.330 227.387  1.00 20.00     0.015 A 
HETATM   28  CBL MTK  5352      -0.741  41.809 229.244  1.00 20.00     0.044 A 
HETATM   29  CAO MTK  5352      -0.054  43.939 227.488  1.00 20.00     0.025 A 
HETATM   30  CBE MTK  5352       0.884  43.490 228.458  1.00 20.00     0.036 A 
HETATM   31  CAU MTK  5352       0.543  42.427 229.335  1.00 20.00     0.054 A 
HETATM   32 CLAF MTK  5352       2.435  44.220 228.573  1.00 20.00    -0.084 Cl
HETATM   33  NBB MTK  5352      -1.075  40.784 230.083  1.00 20.00    -0.356 N 
ATOM     34  HBB MTK  5352      -0.387  40.473 230.768  1.00  0.00     0.166 HD
ENDBRANCH  22  23
ENDBRANCH  19  21
ENDBRANCH   1  15
BRANCH   1  35
HETATM   35  SBC MTK  5352      -0.832  36.871 237.655  1.00 20.00    -0.159 SA
BRANCH  35  36
HETATM   36  CAZ MTK  5352       0.949  37.243 237.634  1.00 20.00     0.084 C 
BRANCH  36  37
HETATM   37  CBO MTK  5352       1.322  38.672 238.010  1.00 20.00    -0.022 A 
HETATM   38  CAX MTK  5352       0.585  39.709 237.137  1.00 20.00     0.011 A 
HETATM   39  CAY MTK  5352       0.498  39.718 238.687  1.00 20.00     0.011 A 
BRANCH  37  40
HETATM   40  CBA MTK  5352       2.841  38.844 238.093  1.00 20.00     0.123 C 
BRANCH  40  41
HETATM   41  CBD MTK  5352       3.399  38.117 239.322  1.00 20.00     0.173 C 
HETATM   42  OAD MTK  5352       4.019  37.055 239.180  1.00 20.00    -0.648 OA
HETATM   43  OAC MTK  5352       3.237  38.600 240.455  1.00 20.00    -0.648 OA
ENDBRANCH  40  41
ENDBRANCH  37  40
ENDBRANCH  36  37
ENDBRANCH  35  36
ENDBRANCH   1  35
TORSDOF 13
ENDMDL
MODEL 2
REMARK VINA RESULT:      -7.9      1.854      2.419
REMARK  13 active torsions:
REMARK  status: ('A' for Active; 'I' for Inactive)
REMARK    1  A    between atoms: CAH_13  and  CBG_12 
REMARK    2  A    between atoms: CAG_14  and  CBF_15 
REMARK    3  A    between atoms: CBI_20  and  CBM_21 
REMARK    4  A    between atoms: CAW_31  and  CBM_21 
REMARK    5  A    between atoms: CBM_21  and  SBC_22 
REMARK    6  A    between atoms: CAZ_23  and  SBC_22 
REMARK    7  A    between atoms: CAZ_23  and  CBO_24 
REMARK    8  A    between atoms: CBA_27  and  CBO_24 
REMARK    9  A    between atoms: CBA_27  and  CBD_28 
REMARK   10  A    between atoms: CAV_32  and  CAW_31 
REMARK   11  A    between atoms: CAV_32  and  CBH_33 
REMARK   12  A    between atoms: CBJ_38  and  CBN_39 
REMARK   13  A    between atoms: CBN_39  and  OAE_42 
ROOT
HETATM    1  CBM MTK  5352      -0.823  36.116 235.993  1.00 20.00     0.080 C 
ENDROOT
BRANCH   1   2
HETATM    2  CAW MTK  5352       0.329  36.509 235.100  1.00 20.00     0.025 C 
BRANCH   2   3
HETATM    3  CAV MTK  5352       0.929  35.350 234.335  1.00 20.00     0.040 C 
BRANCH   3   4
HETATM    4  CBH MTK  5352       0.509  35.515 232.867  1.00 20.00    -0.049 A 
HETATM    5  CAM MTK  5352       0.972  36.727 232.294  1.00 20.00     0.007 A 
HETATM    6  CAI MTK  5352       0.695  37.069 230.966  1.00 20.00     0.001 A 
HETATM    7  CAJ MTK  5352      -0.064  36.195 230.167  1.00 20.00     0.001 A 
HETATM    8  CAP MTK  5352      -0.542  34.975 230.703  1.00 20.00     0.011 A 
HETATM    9  CBJ MTK  5352      -0.280  34.587 232.050  1.00 20.00    -0.019 A 
BRANCH   9  10
HETATM   10  CBN MTK  5352      -0.879  33.178 232.533  1.00 20.00     0.078 C 
HETATM   11  CAA MTK  5352       0.177  32.207 233.099  1.00 20.00     0.051 C 
HETATM   12  CAB MTK  5352      -1.965  33.413 233.585  1.00 20.00     0.051 C 
BRANCH  10  13
HETATM   13  OAE MTK  5352      -1.486  32.497 231.426  1.00 20.00    -0.386 OA
ATOM     14  HAE MTK  5352      -1.521  33.130 230.718  1.00  0.00     0.211 HD
ENDBRANCH  10  13
ENDBRANCH   9  10
ENDBRANCH   3   4
ENDBRANCH   2   3
ENDBRANCH   1   2
BRANCH   1  15
HETATM   15  CBI MTK  5352      -2.091  36.686 235.372  1.00 20.00    -0.043 A 
HETATM   16  CAN MTK  5352      -3.329  36.227 235.870  1.00 20.00     0.008 A 
HETATM   17  CAK MTK  5352      -4.525  36.621 235.225  1.00 20.00     0.001 A 
HETATM   18  CAL MTK  5352      -4.479  37.470 234.096  1.00 20.00     0.011 A 
HETATM   19  CBF MTK  5352      -3.240  37.945 233.599  1.00 20.00    -0.036 A 
HETATM   20  CAT MTK  5352      -2.041  37.554 234.245  1.00 20.00     0.019 A 
BRANCH  19  21
HETATM   21  CAG MTK  5352      -3.264  38.785 232.479  1.00 20.00     0.013 C 
HETATM   22  CAH MTK  5352      -2.129  39.292 231.828  1.00 20.00     0.030 C 
BRANCH  22  23
HETATM   23  CBG MTK  5352      -2.189  40.102 230.692  1.00 20.00     0.032 A 
HETATM   24  CAQ MTK  5352      -1.086  40.892 230.234  1.00 20.00     0.030 A 
HETATM   25  CAS MTK  5352      -1.249  41.690 229.068  1.00 20.00     0.016 A 
HETATM   26  CBK MTK  5352      -2.494  41.693 228.374  1.00 20.00    -0.009 A 
HETATM   27  CAR MTK  5352      -2.696  42.478 227.207  1.00 20.00     0.015 A 
HETATM   28  CBL MTK  5352      -3.567  40.874 228.880  1.00 20.00     0.044 A 
HETATM   29  CAO MTK  5352      -3.965  42.446 226.542  1.00 20.00     0.025 A 
HETATM   30  CBE MTK  5352      -5.022  41.634 227.038  1.00 20.00     0.036 A 
HETATM   31  CAU MTK  5352      -4.825  40.849 228.205  1.00 20.00     0.054 A 
HETATM   32 CLAF MTK  5352      -6.543  41.602 226.241  1.00 20.00    -0.084 Cl
HETATM   33  NBB MTK  5352      -3.371  40.123 230.004  1.00 20.00    -0.356 N 
ATOM     34  HBB MTK  5352      -4.143  39.552 230.347  1.00  0.00     0.166 HD
ENDBRANCH  22  23
ENDBRANCH  19  21
ENDBRANCH   1  15
BRANCH   1  35
HETATM   35  SBC MTK  5352      -0.576  36.742 237.668  1.00 20.00    -0.159 SA
BRANCH  35  36
HETATM   36  CAZ MTK  5352       1.190  37.093 237.409  1.00 20.00     0.084 C 
BRANCH  36  37
HETATM   37  CBO MTK  5352       1.651  38.476 237.853  1.00 20.00    -0.022 A 
HETATM   38  CAX MTK  5352       0.836  39.600 237.182  1.00 20.00     0.011 A 
HETATM   39  CAY MTK  5352       0.957  39.472 238.724  1.00 20.00     0.011 A 
BRANCH  37  40
HETATM   40  CBA MTK  5352       3.173  38.613 237.744  1.00 20.00     0.123 C 
BRANCH  40  41
HETATM   41  CBD MTK  5352       3.850  38.139 239.035  1.00 20.00     0.173 C 
HETATM   42  OAD MTK  5352       4.001  36.928 239.242  1.00 20.00    -0.648 OA
HETATM   43  OAC MTK  5352       4.257  38.971 239.864  1.00 20.00    -0.648 OA
ENDBRANCH  40  41
ENDBRANCH  37  40
ENDBRANCH  36  37
ENDBRANCH  35  36
ENDBRANCH   1  35
TORSDOF 13
ENDMDL
MODEL 3
REMARK VINA RESULT:      -7.8      4.471      9.731
REMARK  13 active torsions:
REMARK  status: ('A' for Active; 'I' for Inactive)
REMARK    1  A    between atoms: CAH_13  and  CBG_12 
REMARK    2  A    between atoms: CAG_14  and  CBF_15 
REMARK    3  A    between atoms: CBI_20  and  CBM_21 
REMARK    4  A    between atoms: CAW_31  and  CBM_21 
REMARK    5  A    between atoms: CBM_21  and  SBC_22 
REMARK    6  A    between atoms: CAZ_23  and  SBC_22 
REMARK    7  A    between atoms: CAZ_23  and  CBO_24 
REMARK    8  A    between atoms: CBA_27  and  CBO_24 
REMARK    9  A    between atoms: CBA_27  and  CBD_28 
REMARK   10  A    between atoms: CAV_32  and  CAW_31 
REMARK   11  A    between atoms: CAV_32  and  CBH_33 
REMARK   12  A    between atoms: CBJ_38  and  CBN_39 
REMARK   13  A    between atoms: CBN_39  and  OAE_42 
ROOT
HETATM    1  CBM MTK  5352      -2.102  39.126 230.802  1.00 20.00     0.080 C 
ENDROOT
BRANCH   1   2
HETATM    2  CAW MTK  5352      -1.660  39.893 229.579  1.00 20.00     0.025 C 
BRANCH   2   3
HETATM    3  CAV MTK  5352      -1.562  41.386 229.799  1.00 20.00     0.040 C 
BRANCH   3   4
HETATM    4  CBH MTK  5352      -1.900  42.061 228.462  1.00 20.00    -0.049 A 
HETATM    5  CAM MTK  5352      -3.198  41.734 227.992  1.00 20.00     0.007 A 
HETATM    6  CAI MTK  5352      -3.698  42.244 226.790  1.00 20.00     0.001 A 
HETATM    7  CAJ MTK  5352      -2.901  43.106 226.014  1.00 20.00     0.001 A 
HETATM    8  CAP MTK  5352      -1.600  43.456 226.451  1.00 20.00     0.011 A 
HETATM    9  CBJ MTK  5352      -1.054  42.960 227.671  1.00 20.00    -0.019 A 
BRANCH   9  10
HETATM   10  CBN MTK  5352       0.432  43.436 228.050  1.00 20.00     0.078 C 
HETATM   11  CAA MTK  5352       0.557  44.038 229.464  1.00 20.00     0.051 C 
HETATM   12  CAB MTK  5352       1.400  42.259 227.915  1.00 20.00     0.051 C 
BRANCH  10  13
HETATM   13  OAE MTK  5352       0.866  44.462 227.147  1.00 20.00    -0.386 OA
ATOM     14  HAE MTK  5352       1.774  44.636 227.367  1.00  0.00     0.211 HD
ENDBRANCH  10  13
ENDBRANCH   9  10
ENDBRANCH   3   4
ENDBRANCH   2   3
ENDBRANCH   1   2
BRANCH   1  15
HETATM   15  CBI MTK  5352      -0.960  38.195 231.188  1.00 20.00    -0.043 A 
HETATM   16  CAN MTK  5352      -0.462  37.321 230.198  1.00 20.00     0.008 A 
HETATM   17  CAK MTK  5352       0.496  36.344 230.554  1.00 20.00     0.001 A 
HETATM   18  CAL MTK  5352       0.952  36.246 231.889  1.00 20.00     0.011 A 
HETATM   19  CBF MTK  5352       0.466  37.129 232.885  1.00 20.00    -0.036 A 
HETATM   20  CAT MTK  5352      -0.491  38.111 232.530  1.00 20.00     0.019 A 
BRANCH  19  21
HETATM   21  CAG MTK  5352       0.960  36.981 234.187  1.00 20.00     0.013 C 
HETATM   22  CAH MTK  5352       1.510  38.014 234.961  1.00 20.00     0.030 C 
BRANCH  22  23
HETATM   23  CBG MTK  5352       1.964  37.838 236.271  1.00 20.00     0.032 A 
HETATM   24  CAQ MTK  5352       2.403  38.920 237.100  1.00 20.00     0.030 A 
HETATM   25  CAS MTK  5352       2.855  38.636 238.418  1.00 20.00     0.016 A 
HETATM   26  CBK MTK  5352       2.864  37.293 238.895  1.00 20.00    -0.009 A 
HETATM   27  CAR MTK  5352       3.309  36.970 240.206  1.00 20.00     0.015 A 
HETATM   28  CBL MTK  5352       2.407  36.246 238.017  1.00 20.00     0.044 A 
HETATM   29  CAO MTK  5352       3.297  35.605 240.642  1.00 20.00     0.025 A 
HETATM   30  CBE MTK  5352       2.842  34.572 239.776  1.00 20.00     0.036 A 
HETATM   31  CAU MTK  5352       2.397  34.891 238.466  1.00 20.00     0.054 A 
HETATM   32 CLAF MTK  5352       2.833  32.937 240.301  1.00 20.00    -0.084 Cl
HETATM   33  NBB MTK  5352       1.983  36.559 236.757  1.00 20.00    -0.356 N 
ATOM     34  HBB MTK  5352       1.665  35.804 236.149  1.00  0.00     0.166 HD
ENDBRANCH  22  23
ENDBRANCH  19  21
ENDBRANCH   1  15
BRANCH   1  35
HETATM   35  SBC MTK  5352      -3.615  38.202 230.467  1.00 20.00    -0.159 SA
BRANCH  35  36
HETATM   36  CAZ MTK  5352      -4.060  38.055 232.225  1.00 20.00     0.084 C 
BRANCH  36  37
HETATM   37  CBO MTK  5352      -4.183  36.629 232.750  1.00 20.00    -0.022 A 
HETATM   38  CAX MTK  5352      -3.767  35.587 231.692  1.00 20.00     0.011 A 
HETATM   39  CAY MTK  5352      -3.107  35.651 233.096  1.00 20.00     0.011 A 
BRANCH  37  40
HETATM   40  CBA MTK  5352      -5.549  36.395 233.401  1.00 20.00     0.123 C 
BRANCH  40  41
HETATM   41  CBD MTK  5352      -5.715  37.284 234.639  1.00 20.00     0.173 C 
HETATM   42  OAD MTK  5352      -6.677  38.058 234.717  1.00 20.00    -0.648 OA
HETATM   43  OAC MTK  5352      -4.890  37.216 235.566  1.00 20.00    -0.648 OA
ENDBRANCH  40  41
ENDBRANCH  37  40
ENDBRANCH  36  37
ENDBRANCH  35  36
ENDBRANCH   1  35
TORSDOF 13
ENDMDL
MODEL 4
REMARK VINA RESULT:      -7.6      5.191     10.244
REMARK  13 active torsions:
REMARK  status: ('A' for Active; 'I' for Inactive)
REMARK    1  A    between atoms: CAH_13  and  CBG_12 
REMARK    2  A    between atoms: CAG_14  and  CBF_15 
REMARK    3  A    between atoms: CBI_20  and  CBM_21 
REMARK    4  A    between atoms: CAW_31  and  CBM_21 
REMARK    5  A    between atoms: CBM_21  and  SBC_22 
REMARK    6  A    between atoms: CAZ_23  and  SBC_22 
REMARK    7  A    between atoms: CAZ_23  and  CBO_24 
REMARK    8  A    between atoms: CBA_27  and  CBO_24 
REMARK    9  A    between atoms: CBA_27  and  CBD_28 
REMARK   10  A    between atoms: CAV_32  and  CAW_31 
REMARK   11  A    between atoms: CAV_32  and  CBH_33 
REMARK   12  A    between atoms: CBJ_38  and  CBN_39 
REMARK   13  A    between atoms: CBN_39  and  OAE_42 
ROOT
HETATM    1  CBM MTK  5352      -1.821  41.489 228.595  1.00 20.00     0.080 C 
ENDROOT
BRANCH   1   2
HETATM    2  CAW MTK  5352      -3.021  42.057 227.876  1.00 20.00     0.025 C 
BRANCH   2   3
HETATM    3  CAV MTK  5352      -2.822  42.204 226.383  1.00 20.00     0.040 C 
BRANCH   3   4
HETATM    4  CBH MTK  5352      -4.215  42.153 225.738  1.00 20.00    -0.049 A 
HETATM    5  CAM MTK  5352      -5.255  41.963 226.683  1.00 20.00     0.007 A 
HETATM    6  CAI MTK  5352      -6.597  41.887 226.300  1.00 20.00     0.001 A 
HETATM    7  CAJ MTK  5352      -6.939  41.998 224.939  1.00 20.00     0.001 A 
HETATM    8  CAP MTK  5352      -5.929  42.190 223.966  1.00 20.00     0.011 A 
HETATM    9  CBJ MTK  5352      -4.549  42.275 224.315  1.00 20.00    -0.019 A 
BRANCH   9  10
HETATM   10  CBN MTK  5352      -3.506  42.494 223.115  1.00 20.00     0.078 C 
HETATM   11  CAA MTK  5352      -3.033  41.187 222.447  1.00 20.00     0.051 C 
HETATM   12  CAB MTK  5352      -4.125  43.408 222.054  1.00 20.00     0.051 C 
BRANCH  10  13
HETATM   13  OAE MTK  5352      -2.320  43.136 223.604  1.00 20.00    -0.386 OA
ATOM     14  HAE MTK  5352      -1.750  42.437 223.902  1.00  0.00     0.211 HD
ENDBRANCH  10  13
ENDBRANCH   9  10
ENDBRANCH   3   4
ENDBRANCH   2   3
ENDBRANCH   1   2
BRANCH   1  15
HETATM   15  CBI MTK  5352      -2.297  40.270 229.374  1.00 20.00    -0.043 A 
HETATM   16  CAN MTK  5352      -3.564  39.738 229.051  1.00 20.00     0.008 A 
HETATM   17  CAK MTK  5352      -4.103  38.699 229.846  1.00 20.00     0.001 A 
HETATM   18  CAL MTK  5352      -3.377  38.198 230.951  1.00 20.00     0.011 A 
HETATM   19  CBF MTK  5352      -2.100  38.719 231.273  1.00 20.00    -0.036 A 
HETATM   20  CAT MTK  5352      -1.557  39.757 230.476  1.00 20.00     0.019 A 
BRANCH  19  21
HETATM   21  CAG MTK  5352      -1.432  38.177 232.378  1.00 20.00     0.013 C 
HETATM   22  CAH MTK  5352      -0.333  37.309 232.308  1.00 20.00     0.030 C 
BRANCH  22  23
HETATM   23  CBG MTK  5352       0.330  36.811 233.433  1.00 20.00     0.032 A 
HETATM   24  CAQ MTK  5352       0.421  35.415 233.735  1.00 20.00     0.030 A 
HETATM   25  CAS MTK  5352       1.113  35.009 234.910  1.00 20.00     0.016 A 
HETATM   26  CBK MTK  5352       1.705  35.987 235.762  1.00 20.00    -0.009 A 
HETATM   27  CAR MTK  5352       2.403  35.620 236.945  1.00 20.00     0.015 A 
HETATM   28  CBL MTK  5352       1.585  37.377 235.404  1.00 20.00     0.044 A 
HETATM   29  CAO MTK  5352       2.984  36.638 237.769  1.00 20.00     0.025 A 
HETATM   30  CBE MTK  5352       2.869  38.011 237.413  1.00 20.00     0.036 A 
HETATM   31  CAU MTK  5352       2.171  38.381 236.233  1.00 20.00     0.054 A 
HETATM   32 CLAF MTK  5352       3.562  39.229 238.405  1.00 20.00    -0.084 Cl
HETATM   33  NBB MTK  5352       0.910  37.726 234.268  1.00 20.00    -0.356 N 
ATOM     34  HBB MTK  5352       0.834  38.715 234.033  1.00  0.00     0.166 HD
ENDBRANCH  22  23
ENDBRANCH  19  21
ENDBRANCH   1  15
BRANCH   1  35
HETATM   35  SBC MTK  5352      -1.089  42.721 229.692  1.00 20.00    -0.159 SA
BRANCH  35  36
HETATM   36  CAZ MTK  5352       0.610  42.385 229.137  1.00 20.00     0.084 C 
BRANCH  36  37
HETATM   37  CBO MTK  5352       1.265  43.498 228.327  1.00 20.00    -0.022 A 
HETATM   38  CAX MTK  5352       2.631  43.910 228.912  1.00 20.00     0.011 A 
HETATM   39  CAY MTK  5352       2.466  43.443 227.441  1.00 20.00     0.011 A 
BRANCH  37  40
HETATM   40  CBA MTK  5352       0.284  44.646 228.073  1.00 20.00     0.123 C 
BRANCH  40  41
HETATM   41  CBD MTK  5352       0.673  45.878 228.899  1.00 20.00     0.173 C 
HETATM   42  OAD MTK  5352       1.229  46.837 228.349  1.00 20.00    -0.648 OA
HETATM   43  OAC MTK  5352       0.417  45.916 230.114  1.00 20.00    -0.648 OA
ENDBRANCH  40  41
ENDBRANCH  37  40
ENDBRANCH  36  37
ENDBRANCH  35  36
ENDBRANCH   1  35
TORSDOF 13
ENDMDL
MODEL 5
REMARK VINA RESULT:      -7.6      1.494      2.066
REMARK  13 active torsions:
REMARK  status: ('A' for Active; 'I' for Inactive)
REMARK    1  A    between atoms: CAH_13  and  CBG_12 
REMARK    2  A    between atoms: CAG_14  and  CBF_15 
REMARK    3  A    between atoms: CBI_20  and  CBM_21 
REMARK    4  A    between atoms: CAW_31  and  CBM_21 
REMARK    5  A    between atoms: CBM_21  and  SBC_22 
REMARK    6  A    between atoms: CAZ_23  and  SBC_22 
REMARK    7  A    between atoms: CAZ_23  and  CBO_24 
REMARK    8  A    between atoms: CBA_27  and  CBO_24 
REMARK    9  A    between atoms: CBA_27  and  CBD_28 
REMARK   10  A    between atoms: CAV_32  and  CAW_31 
REMARK   11  A    between atoms: CAV_32  and  CBH_33 
REMARK   12  A    between atoms: CBJ_38  and  CBN_39 
REMARK   13  A    between atoms: CBN_39  and  OAE_42 
ROOT
HETATM    1  CBM MTK  5352      -0.156  36.888 236.125  1.00 20.00     0.080 C 
ENDROOT
BRANCH   1   2
HETATM    2  CAW MTK  5352       0.174  35.418 236.022  1.00 20.00     0.025 C 
BRANCH   2   3
HETATM    3  CAV MTK  5352       1.308  35.114 235.067  1.00 20.00     0.040 C 
BRANCH   3   4
HETATM    4  CBH MTK  5352       0.707  34.329 233.892  1.00 20.00    -0.049 A 
HETATM    5  CAM MTK  5352       0.185  35.171 232.876  1.00 20.00     0.007 A 
HETATM    6  CAI MTK  5352      -0.407  34.653 231.721  1.00 20.00     0.001 A 
HETATM    7  CAJ MTK  5352      -0.498  33.259 231.550  1.00 20.00     0.001 A 
HETATM    8  CAP MTK  5352       0.013  32.387 232.541  1.00 20.00     0.011 A 
HETATM    9  CBJ MTK  5352       0.627  32.874 233.733  1.00 20.00    -0.019 A 
BRANCH   9  10
HETATM   10  CBN MTK  5352       1.164  31.778 234.776  1.00 20.00     0.078 C 
HETATM   11  CAA MTK  5352       0.914  30.320 234.339  1.00 20.00     0.051 C 
HETATM   12  CAB MTK  5352       2.662  31.984 235.014  1.00 20.00     0.051 C 
BRANCH  10  13
HETATM   13  OAE MTK  5352       0.498  31.930 236.037  1.00 20.00    -0.386 OA
ATOM     14  HAE MTK  5352       0.787  31.201 236.573  1.00  0.00     0.211 HD
ENDBRANCH  10  13
ENDBRANCH   9  10
ENDBRANCH   3   4
ENDBRANCH   2   3
ENDBRANCH   1   2
BRANCH   1  15
HETATM   15  CBI MTK  5352      -1.465  37.110 235.379  1.00 20.00    -0.043 A 
HETATM   16  CAN MTK  5352      -2.567  36.301 235.732  1.00 20.00     0.008 A 
HETATM   17  CAK MTK  5352      -3.755  36.376 234.968  1.00 20.00     0.001 A 
HETATM   18  CAL MTK  5352      -3.838  37.256 233.865  1.00 20.00     0.011 A 
HETATM   19  CBF MTK  5352      -2.741  38.081 233.513  1.00 20.00    -0.036 A 
HETATM   20  CAT MTK  5352      -1.551  38.009 234.279  1.00 20.00     0.019 A 
BRANCH  19  21
HETATM   21  CAG MTK  5352      -2.890  38.932 232.412  1.00 20.00     0.013 C 
HETATM   22  CAH MTK  5352      -1.857  39.307 231.539  1.00 20.00     0.030 C 
BRANCH  22  23
HETATM   23  CBG MTK  5352      -2.048  40.133 230.429  1.00 20.00     0.032 A 
HETATM   24  CAQ MTK  5352      -3.199  40.054 229.582  1.00 20.00     0.030 A 
HETATM   25  CAS MTK  5352      -3.296  40.937 228.470  1.00 20.00     0.016 A 
HETATM   26  CBK MTK  5352      -2.259  41.881 228.217  1.00 20.00    -0.009 A 
HETATM   27  CAR MTK  5352      -2.321  42.779 227.116  1.00 20.00     0.015 A 
HETATM   28  CBL MTK  5352      -1.127  41.918 229.107  1.00 20.00     0.044 A 
HETATM   29  CAO MTK  5352      -1.255  43.713 226.904  1.00 20.00     0.025 A 
HETATM   30  CBE MTK  5352      -0.140  43.752 227.785  1.00 20.00     0.036 A 
HETATM   31  CAU MTK  5352      -0.074  42.856 228.885  1.00 20.00     0.054 A 
HETATM   32 CLAF MTK  5352       1.138  44.869 227.524  1.00 20.00    -0.084 Cl
HETATM   33  NBB MTK  5352      -1.069  41.052 230.162  1.00 20.00    -0.356 N 
ATOM     34  HBB MTK  5352      -0.259  41.092 230.780  1.00  0.00     0.166 HD
ENDBRANCH  22  23
ENDBRANCH  19  21
ENDBRANCH   1  15
BRANCH   1  35
HETATM   35  SBC MTK  5352       1.171  37.893 235.428  1.00 20.00    -0.159 SA
BRANCH  35  36
HETATM   36  CAZ MTK  5352       1.708  38.527 237.046  1.00 20.00     0.084 C 
BRANCH  36  37
HETATM   37  CBO MTK  5352       3.092  38.075 237.497  1.00 20.00    -0.022 A 
HETATM   38  CAX MTK  5352       3.074  36.640 238.064  1.00 20.00     0.011 A 
HETATM   39  CAY MTK  5352       4.001  37.057 236.889  1.00 20.00     0.011 A 
BRANCH  37  40
HETATM   40  CBA MTK  5352       3.753  39.127 238.393  1.00 20.00     0.123 C 
BRANCH  40  41
HETATM   41  CBD MTK  5352       4.009  38.558 239.793  1.00 20.00     0.173 C 
HETATM   42  OAD MTK  5352       5.127  38.111 240.080  1.00 20.00    -0.648 OA
HETATM   43  OAC MTK  5352       3.099  38.557 240.639  1.00 20.00    -0.648 OA
ENDBRANCH  40  41
ENDBRANCH  37  40
ENDBRANCH  36  37
ENDBRANCH  35  36
ENDBRANCH   1  35
TORSDOF 13
ENDMDL
MODEL 6
REMARK VINA RESULT:      -7.5      4.580      8.790
REMARK  13 active torsions:
REMARK  status: ('A' for Active; 'I' for Inactive)
REMARK    1  A    between atoms: CAH_13  and  CBG_12 
REMARK    2  A    between atoms: CAG_14  and  CBF_15 
REMARK    3  A    between atoms: CBI_20  and  CBM_21 
REMARK    4  A    between atoms: CAW_31  and  CBM_21 
REMARK    5  A    between atoms: CBM_21  and  SBC_22 
REMARK    6  A    between atoms: CAZ_23  and  SBC_22 
REMARK    7  A    between atoms: CAZ_23  and  CBO_24 
REMARK    8  A    between atoms: CBA_27  and  CBO_24 
REMARK    9  A    between atoms: CBA_27  and  CBD_28 
REMARK   10  A    between atoms: CAV_32  and  CAW_31 
REMARK   11  A    between atoms: CAV_32  and  CBH_33 
REMARK   12  A    between atoms: CBJ_38  and  CBN_39 
REMARK   13  A    between atoms: CBN_39  and  OAE_42 
ROOT
HETATM    1  CBM MTK  5352      -2.115  39.276 231.251  1.00 20.00     0.080 C 
ENDROOT
BRANCH   1   2
HETATM    2  CAW MTK  5352      -1.822  39.883 229.900  1.00 20.00     0.025 C 
BRANCH   2   3
HETATM    3  CAV MTK  5352      -1.263  41.286 229.971  1.00 20.00     0.040 C 
BRANCH   3   4
HETATM    4  CBH MTK  5352      -1.650  41.991 228.663  1.00 20.00    -0.049 A 
HETATM    5  CAM MTK  5352      -2.963  41.671 228.231  1.00 20.00     0.007 A 
HETATM    6  CAI MTK  5352      -3.507  42.208 227.060  1.00 20.00     0.001 A 
HETATM    7  CAJ MTK  5352      -2.739  43.090 226.277  1.00 20.00     0.001 A 
HETATM    8  CAP MTK  5352      -1.425  43.434 226.676  1.00 20.00     0.011 A 
HETATM    9  CBJ MTK  5352      -0.834  42.911 227.864  1.00 20.00    -0.019 A 
BRANCH   9  10
HETATM   10  CBN MTK  5352       0.663  43.383 228.201  1.00 20.00     0.078 C 
HETATM   11  CAA MTK  5352       0.831  43.978 229.614  1.00 20.00     0.051 C 
HETATM   12  CAB MTK  5352       1.625  42.205 228.032  1.00 20.00     0.051 C 
BRANCH  10  13
HETATM   13  OAE MTK  5352       1.071  44.413 227.290  1.00 20.00    -0.386 OA
ATOM     14  HAE MTK  5352       0.339  45.016 227.234  1.00  0.00     0.211 HD
ENDBRANCH  10  13
ENDBRANCH   9  10
ENDBRANCH   3   4
ENDBRANCH   2   3
ENDBRANCH   1   2
BRANCH   1  15
HETATM   15  CBI MTK  5352      -1.091  38.172 231.482  1.00 20.00    -0.043 A 
HETATM   16  CAN MTK  5352      -0.476  38.101 232.751  1.00 20.00     0.008 A 
HETATM   17  CAK MTK  5352       0.580  37.185 232.959  1.00 20.00     0.001 A 
HETATM   18  CAL MTK  5352       1.014  36.346 231.907  1.00 20.00     0.011 A 
HETATM   19  CBF MTK  5352       0.392  36.403 230.634  1.00 20.00    -0.036 A 
HETATM   20  CAT MTK  5352      -0.669  37.318 230.425  1.00 20.00     0.019 A 
BRANCH  19  21
HETATM   21  CAG MTK  5352       0.867  35.543 229.636  1.00 20.00     0.013 C 
HETATM   22  CAH MTK  5352       0.169  34.439 229.126  1.00 20.00     0.030 C 
BRANCH  22  23
HETATM   23  CBG MTK  5352       0.659  33.621 228.105  1.00 20.00     0.032 A 
HETATM   24  CAQ MTK  5352       1.053  32.260 228.313  1.00 20.00     0.030 A 
HETATM   25  CAS MTK  5352       1.547  31.511 227.209  1.00 20.00     0.016 A 
HETATM   26  CBK MTK  5352       1.642  32.116 225.922  1.00 20.00    -0.009 A 
HETATM   27  CAR MTK  5352       2.131  31.400 224.796  1.00 20.00     0.015 A 
HETATM   28  CBL MTK  5352       1.226  33.487 225.773  1.00 20.00     0.044 A 
HETATM   29  CAO MTK  5352       2.205  32.050 223.521  1.00 20.00     0.025 A 
HETATM   30  CBE MTK  5352       1.791  33.402 223.373  1.00 20.00     0.036 A 
HETATM   31  CAU MTK  5352       1.303  34.121 224.496  1.00 20.00     0.054 A 
HETATM   32 CLAF MTK  5352       1.886  34.179 221.844  1.00 20.00    -0.084 Cl
HETATM   33  NBB MTK  5352       0.760  34.174 226.858  1.00 20.00    -0.356 N 
ATOM     34  HBB MTK  5352       0.473  35.144 226.732  1.00  0.00     0.166 HD
ENDBRANCH  22  23
ENDBRANCH  19  21
ENDBRANCH   1  15
BRANCH   1  35
HETATM   35  SBC MTK  5352      -3.798  38.630 231.313  1.00 20.00    -0.159 SA
BRANCH  35  36
HETATM   36  CAZ MTK  5352      -3.900  38.727 233.127  1.00 20.00     0.084 C 
BRANCH  36  37
HETATM   37  CBO MTK  5352      -4.472  37.493 233.815  1.00 20.00    -0.022 A 
HETATM   38  CAX MTK  5352      -5.736  37.823 234.634  1.00 20.00     0.011 A 
HETATM   39  CAY MTK  5352      -5.730  36.741 233.520  1.00 20.00     0.011 A 
BRANCH  37  40
HETATM   40  CBA MTK  5352      -3.382  36.725 234.568  1.00 20.00     0.123 C 
BRANCH  40  41
HETATM   41  CBD MTK  5352      -3.124  35.367 233.905  1.00 20.00     0.173 C 
HETATM   42  OAD MTK  5352      -2.628  35.320 232.772  1.00 20.00    -0.648 OA
HETATM   43  OAC MTK  5352      -3.402  34.318 234.509  1.00 20.00    -0.648 OA
ENDBRANCH  40  41
ENDBRANCH  37  40
ENDBRANCH  36  37
ENDBRANCH  35  36
ENDBRANCH   1  35
TORSDOF 13
ENDMDL
MODEL 7
REMARK VINA RESULT:      -7.4      3.961      6.250
REMARK  13 active torsions:
REMARK  status: ('A' for Active; 'I' for Inactive)
REMARK    1  A    between atoms: CAH_13  and  CBG_12 
REMARK    2  A    between atoms: CAG_14  and  CBF_15 
REMARK    3  A    between atoms: CBI_20  and  CBM_21 
REMARK    4  A    between atoms: CAW_31  and  CBM_21 
REMARK    5  A    between atoms: CBM_21  and  SBC_22 
REMARK    6  A    between atoms: CAZ_23  and  SBC_22 
REMARK    7  A    between atoms: CAZ_23  and  CBO_24 
REMARK    8  A    between atoms: CBA_27  and  CBO_24 
REMARK    9  A    between atoms: CBA_27  and  CBD_28 
REMARK   10  A    between atoms: CAV_32  and  CAW_31 
REMARK   11  A    between atoms: CAV_32  and  CBH_33 
REMARK   12  A    between atoms: CBJ_38  and  CBN_39 
REMARK   13  A    between atoms: CBN_39  and  OAE_42 
ROOT
HETATM    1  CBM MTK  5352       0.395  36.875 234.702  1.00 20.00     0.080 C 
ENDROOT
BRANCH   1   2
HETATM    2  CAW MTK  5352       1.133  35.561 234.791  1.00 20.00     0.025 C 
BRANCH   2   3
HETATM    3  CAV MTK  5352       0.284  34.420 235.309  1.00 20.00     0.040 C 
BRANCH   3   4
HETATM    4  CBH MTK  5352       0.628  33.184 234.465  1.00 20.00    -0.049 A 
HETATM    5  CAM MTK  5352      -0.113  33.117 233.257  1.00 20.00     0.007 A 
HETATM    6  CAI MTK  5352       0.051  32.068 232.348  1.00 20.00     0.001 A 
HETATM    7  CAJ MTK  5352       0.972  31.042 232.628  1.00 20.00     0.001 A 
HETATM    8  CAP MTK  5352       1.731  31.075 233.822  1.00 20.00     0.011 A 
HETATM    9  CBJ MTK  5352       1.597  32.128 234.775  1.00 20.00    -0.019 A 
BRANCH   9  10
HETATM   10  CBN MTK  5352       2.517  32.045 236.087  1.00 20.00     0.078 C 
HETATM   11  CAA MTK  5352       3.277  33.349 236.405  1.00 20.00     0.051 C 
HETATM   12  CAB MTK  5352       1.662  31.652 237.293  1.00 20.00     0.051 C 
BRANCH  10  13
HETATM   13  OAE MTK  5352       3.523  31.036 235.920  1.00 20.00    -0.386 OA
ATOM     14  HAE MTK  5352       4.014  31.284 235.146  1.00  0.00     0.211 HD
ENDBRANCH  10  13
ENDBRANCH   9  10
ENDBRANCH   3   4
ENDBRANCH   2   3
ENDBRANCH   1   2
BRANCH   1  15
HETATM   15  CBI MTK  5352       0.123  37.142 233.228  1.00 20.00    -0.043 A 
HETATM   16  CAN MTK  5352      -0.763  38.191 232.903  1.00 20.00     0.008 A 
HETATM   17  CAK MTK  5352      -1.153  38.378 231.556  1.00 20.00     0.001 A 
HETATM   18  CAL MTK  5352      -0.656  37.523 230.546  1.00 20.00     0.011 A 
HETATM   19  CBF MTK  5352       0.245  36.476 230.863  1.00 20.00    -0.036 A 
HETATM   20  CAT MTK  5352       0.639  36.290 232.211  1.00 20.00     0.019 A 
BRANCH  19  21
HETATM   21  CAG MTK  5352       0.702  35.667 229.815  1.00 20.00     0.013 C 
HETATM   22  CAH MTK  5352       0.144  34.434 229.448  1.00 20.00     0.030 C 
BRANCH  22  23
HETATM   23  CBG MTK  5352       0.605  33.667 228.376  1.00 20.00     0.032 A 
HETATM   24  CAQ MTK  5352       0.984  32.292 228.501  1.00 20.00     0.030 A 
HETATM   25  CAS MTK  5352       1.449  31.599 227.349  1.00 20.00     0.016 A 
HETATM   26  CBK MTK  5352       1.529  32.273 226.096  1.00 20.00    -0.009 A 
HETATM   27  CAR MTK  5352       1.989  31.614 224.923  1.00 20.00     0.015 A 
HETATM   28  CBL MTK  5352       1.129  33.656 226.030  1.00 20.00     0.044 A 
HETATM   29  CAO MTK  5352       2.048  32.333 223.685  1.00 20.00     0.025 A 
HETATM   30  CBE MTK  5352       1.650  33.696 223.618  1.00 20.00     0.036 A 
HETATM   31  CAU MTK  5352       1.191  34.358 224.788  1.00 20.00     0.054 A 
HETATM   32 CLAF MTK  5352       1.727  34.555 222.133  1.00 20.00    -0.084 Cl
HETATM   33  NBB MTK  5352       0.691  34.287 227.159  1.00 20.00    -0.356 N 
ATOM     34  HBB MTK  5352       0.414  35.266 227.092  1.00  0.00     0.166 HD
ENDBRANCH  22  23
ENDBRANCH  19  21
ENDBRANCH   1  15
BRANCH   1  35
HETATM   35  SBC MTK  5352       1.366  38.205 235.439  1.00 20.00    -0.159 SA
BRANCH  35  36
HETATM   36  CAZ MTK  5352       2.476  37.070 236.327  1.00 20.00     0.084 C 
BRANCH  36  37
HETATM   37  CBO MTK  5352       2.196  36.918 237.818  1.00 20.00    -0.022 A 
HETATM   38  CAX MTK  5352       0.997  37.775 238.271  1.00 20.00     0.011 A 
HETATM   39  CAY MTK  5352       1.054  36.241 238.503  1.00 20.00     0.011 A 
BRANCH  37  40
HETATM   40  CBA MTK  5352       3.476  37.090 238.641  1.00 20.00     0.123 C 
BRANCH  40  41
HETATM   41  CBD MTK  5352       3.552  38.504 239.227  1.00 20.00     0.173 C 
HETATM   42  OAD MTK  5352       3.766  39.469 238.482  1.00 20.00    -0.648 OA
HETATM   43  OAC MTK  5352       3.387  38.681 240.446  1.00 20.00    -0.648 OA
ENDBRANCH  40  41
ENDBRANCH  37  40
ENDBRANCH  36  37
ENDBRANCH  35  36
ENDBRANCH   1  35
TORSDOF 13
ENDMDL
MODEL 8
REMARK VINA RESULT:      -7.4      2.332      3.867
REMARK  13 active torsions:
REMARK  status: ('A' for Active; 'I' for Inactive)
REMARK    1  A    between atoms: CAH_13  and  CBG_12 
REMARK    2  A    between atoms: CAG_14  and  CBF_15 
REMARK    3  A    between atoms: CBI_20  and  CBM_21 
REMARK    4  A    between atoms: CAW_31  and  CBM_21 
REMARK    5  A    between atoms: CBM_21  and  SBC_22 
REMARK    6  A    between atoms: CAZ_23  and  SBC_22 
REMARK    7  A    between atoms: CAZ_23  and  CBO_24 
REMARK    8  A    between atoms: CBA_27  and  CBO_24 
REMARK    9  A    between atoms: CBA_27  and  CBD_28 
REMARK   10  A    between atoms: CAV_32  and  CAW_31 
REMARK   11  A    between atoms: CAV_32  and  CBH_33 
REMARK   12  A    between atoms: CBJ_38  and  CBN_39 
REMARK   13  A    between atoms: CBN_39  and  OAE_42 
ROOT
HETATM    1  CBM MTK  5352       0.250  36.459 236.105  1.00 20.00     0.080 C 
ENDROOT
BRANCH   1   2
HETATM    2  CAW MTK  5352       0.340  34.980 235.816  1.00 20.00     0.025 C 
BRANCH   2   3
HETATM    3  CAV MTK  5352       0.247  34.112 237.052  1.00 20.00     0.040 C 
BRANCH   3   4
HETATM    4  CBH MTK  5352       1.547  33.297 237.127  1.00 20.00    -0.049 A 
HETATM    5  CAM MTK  5352       1.925  32.744 235.877  1.00 20.00     0.007 A 
HETATM    6  CAI MTK  5352       3.078  31.967 235.732  1.00 20.00     0.001 A 
HETATM    7  CAJ MTK  5352       3.894  31.717 236.851  1.00 20.00     0.001 A 
HETATM    8  CAP MTK  5352       3.550  32.253 238.116  1.00 20.00     0.011 A 
HETATM    9  CBJ MTK  5352       2.384  33.053 238.306  1.00 20.00    -0.019 A 
BRANCH   9  10
HETATM   10  CBN MTK  5352       2.110  33.599 239.790  1.00 20.00     0.078 C 
HETATM   11  CAA MTK  5352       0.828  33.038 240.439  1.00 20.00     0.051 C 
HETATM   12  CAB MTK  5352       3.310  33.281 240.686  1.00 20.00     0.051 C 
BRANCH  10  13
HETATM   13  OAE MTK  5352       1.948  35.023 239.769  1.00 20.00    -0.386 OA
ATOM     14  HAE MTK  5352       2.821  35.383 239.654  1.00  0.00     0.211 HD
ENDBRANCH  10  13
ENDBRANCH   9  10
ENDBRANCH   3   4
ENDBRANCH   2   3
ENDBRANCH   1   2
BRANCH   1  15
HETATM   15  CBI MTK  5352      -0.978  36.987 235.376  1.00 20.00    -0.043 A 
HETATM   16  CAN MTK  5352      -2.221  36.379 235.657  1.00 20.00     0.008 A 
HETATM   17  CAK MTK  5352      -3.358  36.741 234.898  1.00 20.00     0.001 A 
HETATM   18  CAL MTK  5352      -3.251  37.706 233.871  1.00 20.00     0.011 A 
HETATM   19  CBF MTK  5352      -2.009  38.331 233.592  1.00 20.00    -0.036 A 
HETATM   20  CAT MTK  5352      -0.870  37.971 234.353  1.00 20.00     0.019 A 
BRANCH  19  21
HETATM   21  CAG MTK  5352      -1.972  39.280 232.564  1.00 20.00     0.013 C 
HETATM   22  CAH MTK  5352      -2.268  39.021 231.217  1.00 20.00     0.030 C 
BRANCH  22  23
HETATM   23  CBG MTK  5352      -2.252  40.000 230.221  1.00 20.00     0.032 A 
HETATM   24  CAQ MTK  5352      -3.403  40.346 229.444  1.00 20.00     0.030 A 
HETATM   25  CAS MTK  5352      -3.282  41.354 228.447  1.00 20.00     0.016 A 
HETATM   26  CBK MTK  5352      -2.031  42.002 228.237  1.00 20.00    -0.009 A 
HETATM   27  CAR MTK  5352      -1.871  43.013 227.250  1.00 20.00     0.015 A 
HETATM   28  CBL MTK  5352      -0.908  41.615 229.053  1.00 20.00     0.044 A 
HETATM   29  CAO MTK  5352      -0.593  43.639 227.078  1.00 20.00     0.025 A 
HETATM   30  CBE MTK  5352       0.514  43.260 227.886  1.00 20.00     0.036 A 
HETATM   31  CAU MTK  5352       0.358  42.250 228.872  1.00 20.00     0.054 A 
HETATM   32 CLAF MTK  5352       2.044  44.009 227.673  1.00 20.00    -0.084 Cl
HETATM   33  NBB MTK  5352      -1.064  40.641 229.998  1.00 20.00    -0.356 N 
ATOM     34  HBB MTK  5352      -0.257  40.380 230.564  1.00  0.00     0.166 HD
ENDBRANCH  22  23
ENDBRANCH  19  21
ENDBRANCH   1  15
BRANCH   1  35
HETATM   35  SBC MTK  5352       1.747  37.310 235.564  1.00 20.00    -0.159 SA
BRANCH  35  36
HETATM   36  CAZ MTK  5352       2.440  37.416 237.243  1.00 20.00     0.084 C 
BRANCH  36  37
HETATM   37  CBO MTK  5352       2.206  38.738 237.963  1.00 20.00    -0.022 A 
HETATM   38  CAX MTK  5352       1.340  39.704 237.128  1.00 20.00     0.011 A 
HETATM   39  CAY MTK  5352       0.951  39.277 238.570  1.00 20.00     0.011 A 
BRANCH  37  40
HETATM   40  CBA MTK  5352       3.520  39.322 238.490  1.00 20.00     0.123 C 
BRANCH  40  41
HETATM   41  CBD MTK  5352       3.926  38.639 239.800  1.00 20.00     0.173 C 
HETATM   42  OAD MTK  5352       3.221  38.774 240.809  1.00 20.00    -0.648 OA
HETATM   43  OAC MTK  5352       4.953  37.940 239.844  1.00 20.00    -0.648 OA
ENDBRANCH  40  41
ENDBRANCH  37  40
ENDBRANCH  36  37
ENDBRANCH  35  36
ENDBRANCH   1  35
TORSDOF 13
ENDMDL
MODEL 9
REMARK VINA RESULT:      -7.4      4.874     10.596
REMARK  13 active torsions:
REMARK  status: ('A' for Active; 'I' for Inactive)
REMARK    1  A    between atoms: CAH_13  and  CBG_12 
REMARK    2  A    between atoms: CAG_14  and  CBF_15 
REMARK    3  A    between atoms: CBI_20  and  CBM_21 
REMARK    4  A    between atoms: CAW_31  and  CBM_21 
REMARK    5  A    between atoms: CBM_21  and  SBC_22 
REMARK    6  A    between atoms: CAZ_23  and  SBC_22 
REMARK    7  A    between atoms: CAZ_23  and  CBO_24 
REMARK    8  A    between atoms: CBA_27  and  CBO_24 
REMARK    9  A    between atoms: CBA_27  and  CBD_28 
REMARK   10  A    between atoms: CAV_32  and  CAW_31 
REMARK   11  A    between atoms: CAV_32  and  CBH_33 
REMARK   12  A    between atoms: CBJ_38  and  CBN_39 
REMARK   13  A    between atoms: CBN_39  and  OAE_42 
ROOT
HETATM    1  CBM MTK  5352      -2.460  38.812 230.762  1.00 20.00     0.080 C 
ENDROOT
BRANCH   1   2
HETATM    2  CAW MTK  5352      -2.203  39.669 229.546  1.00 20.00     0.025 C 
BRANCH   2   3
HETATM    3  CAV MTK  5352      -1.570  41.005 229.866  1.00 20.00     0.040 C 
BRANCH   3   4
HETATM    4  CBH MTK  5352      -1.756  41.898 228.630  1.00 20.00    -0.049 A 
HETATM    5  CAM MTK  5352      -2.980  41.657 227.955  1.00 20.00     0.007 A 
HETATM    6  CAI MTK  5352      -3.340  42.365 226.805  1.00 20.00     0.001 A 
HETATM    7  CAJ MTK  5352      -2.472  43.346 226.290  1.00 20.00     0.001 A 
HETATM    8  CAP MTK  5352      -1.242  43.616 226.937  1.00 20.00     0.011 A 
HETATM    9  CBJ MTK  5352      -0.838  42.919 228.114  1.00 20.00    -0.019 A 
BRANCH   9  10
HETATM   10  CBN MTK  5352       0.580  43.322 228.749  1.00 20.00     0.078 C 
HETATM   11  CAA MTK  5352       1.689  42.273 228.526  1.00 20.00     0.051 C 
HETATM   12  CAB MTK  5352       1.036  44.667 228.180  1.00 20.00     0.051 C 
BRANCH  10  13
HETATM   13  OAE MTK  5352       0.460  43.469 230.170  1.00 20.00    -0.386 OA
ATOM     14  HAE MTK  5352       0.872  44.299 230.382  1.00  0.00     0.211 HD
ENDBRANCH  10  13
ENDBRANCH   9  10
ENDBRANCH   3   4
ENDBRANCH   2   3
ENDBRANCH   1   2
BRANCH   1  15
HETATM   15  CBI MTK  5352      -1.154  38.106 231.101  1.00 20.00    -0.043 A 
HETATM   16  CAN MTK  5352      -0.554  37.317 230.096  1.00 20.00     0.008 A 
HETATM   17  CAK MTK  5352       0.579  36.533 230.414  1.00 20.00     0.001 A 
HETATM   18  CAL MTK  5352       1.107  36.542 231.725  1.00 20.00     0.011 A 
HETATM   19  CBF MTK  5352       0.517  37.341 232.736  1.00 20.00    -0.036 A 
HETATM   20  CAT MTK  5352      -0.616  38.131 232.418  1.00 20.00     0.019 A 
BRANCH  19  21
HETATM   21  CAG MTK  5352       1.090  37.307 234.013  1.00 20.00     0.013 C 
HETATM   22  CAH MTK  5352       0.811  38.216 235.045  1.00 20.00     0.030 C 
BRANCH  22  23
HETATM   23  CBG MTK  5352       1.377  38.134 236.320  1.00 20.00     0.032 A 
HETATM   24  CAQ MTK  5352       1.711  39.284 237.104  1.00 20.00     0.030 A 
HETATM   25  CAS MTK  5352       2.290  39.093 238.390  1.00 20.00     0.016 A 
HETATM   26  CBK MTK  5352       2.527  37.775 238.878  1.00 20.00    -0.009 A 
HETATM   27  CAR MTK  5352       3.104  37.546 240.156  1.00 20.00     0.015 A 
HETATM   28  CBL MTK  5352       2.165  36.657 238.044  1.00 20.00     0.044 A 
HETATM   29  CAO MTK  5352       3.320  36.202 240.605  1.00 20.00     0.025 A 
HETATM   30  CBE MTK  5352       2.960  35.098 239.784  1.00 20.00     0.036 A 
HETATM   31  CAU MTK  5352       2.383  35.323 238.506  1.00 20.00     0.054 A 
HETATM   32 CLAF MTK  5352       3.225  33.489 240.323  1.00 20.00    -0.084 Cl
HETATM   33  NBB MTK  5352       1.614  36.881 236.815  1.00 20.00    -0.356 N 
ATOM     34  HBB MTK  5352       1.367  36.076 236.240  1.00  0.00     0.166 HD
ENDBRANCH  22  23
ENDBRANCH  19  21
ENDBRANCH   1  15
BRANCH   1  35
HETATM   35  SBC MTK  5352      -3.780  37.625 230.442  1.00 20.00    -0.159 SA
BRANCH  35  36
HETATM   36  CAZ MTK  5352      -3.742  37.881 228.641  1.00 20.00     0.084 C 
BRANCH  36  37
HETATM   37  CBO MTK  5352      -5.076  37.700 227.928  1.00 20.00    -0.022 A 
HETATM   38  CAX MTK  5352      -5.392  36.213 227.665  1.00 20.00     0.011 A 
HETATM   39  CAY MTK  5352      -6.360  37.141 228.449  1.00 20.00     0.011 A 
BRANCH  37  40
HETATM   40  CBA MTK  5352      -5.180  38.619 226.707  1.00 20.00     0.123 C 
BRANCH  40  41
HETATM   41  CBD MTK  5352      -6.210  39.727 226.955  1.00 20.00     0.173 C 
HETATM   42  OAD MTK  5352      -7.150  39.882 226.164  1.00 20.00    -0.648 OA
HETATM   43  OAC MTK  5352      -6.107  40.458 227.954  1.00 20.00    -0.648 OA
ENDBRANCH  40  41
ENDBRANCH  37  40
ENDBRANCH  36  37
ENDBRANCH  35  36
ENDBRANCH   1  35
TORSDOF 13
ENDMDL
