MODEL 1
REMARK VINA RESULT:      -6.2      0.000      0.000
REMARK  0 active torsions:
REMARK  status: ('A' for Active; 'I' for Inactive)
ROOT
HETATM    1  C9  7HP  1141       2.146  42.586 227.849  1.00 20.00     0.139 A 
HETATM    2  C4  7HP  1141       1.663  43.512 228.771  1.00 20.00     0.084 A 
HETATM    3  N3  7HP  1141       1.252  43.255 230.033  1.00 20.00    -0.349 N 
ATOM      4  H3  7HP  1141       1.281  42.338 230.479  1.00  0.00     0.166 HD
HETATM    5  C2  7HP  1141       0.792  44.397 230.628  1.00 20.00     0.184 A 
HETATM    6  N1  7HP  1141       0.780  45.631 230.010  1.00 20.00    -0.318 N 
ATOM      7  H1  7HP  1141       0.409  46.418 230.542  1.00  0.00     0.169 HD
HETATM    8  C6  7HP  1141       1.227  45.883 228.738  1.00 20.00     0.276 A 
HETATM    9  O6  7HP  1141       1.257  47.014 228.306  1.00 20.00    -0.266 OA
HETATM   10  C5  7HP  1141       1.674  44.734 228.128  1.00 20.00     0.144 A 
HETATM   11  N7  7HP  1141       2.165  44.534 226.860  1.00 20.00    -0.294 N 
ATOM     12  H7  7HP  1141       2.303  45.242 226.138  1.00  0.00     0.187 HD
HETATM   13  N8  7HP  1141       2.417  43.271 226.766  1.00 20.00    -0.309 N 
ATOM     14  H8  7HP  1141       2.795  42.844 225.921  1.00  0.00     0.186 HD
ENDROOT
TORSDOF 0
ENDMDL
MODEL 2
REMARK VINA RESULT:      -6.1      2.410      3.192
REMARK  0 active torsions:
REMARK  status: ('A' for Active; 'I' for Inactive)
ROOT
HETATM    1  C9  7HP  1141       4.810  43.353 229.573  1.00 20.00     0.139 A 
HETATM    2  C4  7HP  1141       3.464  43.191 229.255  1.00 20.00     0.084 A 
HETATM    3  N3  7HP  1141       2.957  42.446 228.246  1.00 20.00    -0.349 N 
ATOM      4  H3  7HP  1141       3.512  41.875 227.609  1.00  0.00     0.166 HD
HETATM    5  C2  7HP  1141       1.596  42.565 228.201  1.00 20.00     0.184 A 
HETATM    6  N1  7HP  1141       0.865  43.330 229.087  1.00 20.00    -0.318 N 
ATOM      7  H1  7HP  1141      -0.147  43.355 228.960  1.00  0.00     0.169 HD
HETATM    8  C6  7HP  1141       1.389  44.059 230.124  1.00 20.00     0.276 A 
HETATM    9  O6  7HP  1141       0.664  44.635 230.905  1.00 20.00    -0.266 OA
HETATM   10  C5  7HP  1141       2.761  43.958 230.162  1.00 20.00     0.144 A 
HETATM   11  N7  7HP  1141       3.672  44.546 231.006  1.00 20.00    -0.294 N 
ATOM     12  H7  7HP  1141       3.469  45.168 231.789  1.00  0.00     0.187 HD
HETATM   13  N8  7HP  1141       4.837  44.155 230.609  1.00 20.00    -0.309 N 
ATOM     14  H8  7HP  1141       5.703  44.445 231.062  1.00  0.00     0.186 HD
ENDROOT
TORSDOF 0
ENDMDL
MODEL 3
REMARK VINA RESULT:      -6.1      1.622      1.704
REMARK  0 active torsions:
REMARK  status: ('A' for Active; 'I' for Inactive)
ROOT
HETATM    1  C9  7HP  1141       0.924  42.378 227.465  1.00 20.00     0.139 A 
HETATM    2  C4  7HP  1141       1.546  43.374 228.214  1.00 20.00     0.084 A 
HETATM    3  N3  7HP  1141       2.705  43.261 228.901  1.00 20.00    -0.349 N 
ATOM      4  H3  7HP  1141       3.290  42.426 228.923  1.00  0.00     0.166 HD
HETATM    5  C2  7HP  1141       2.983  44.424 229.563  1.00 20.00     0.184 A 
HETATM    6  N1  7HP  1141       2.186  45.549 229.504  1.00 20.00    -0.318 N 
ATOM      7  H1  7HP  1141       2.482  46.363 230.043  1.00  0.00     0.169 HD
HETATM    8  C6  7HP  1141       1.026  45.659 228.780  1.00 20.00     0.276 A 
HETATM    9  O6  7HP  1141       0.433  46.713 228.718  1.00 20.00    -0.266 OA
HETATM   10  C5  7HP  1141       0.731  44.485 228.126  1.00 20.00     0.144 A 
HETATM   11  N7  7HP  1141      -0.340  44.155 227.331  1.00 20.00    -0.294 N 
ATOM     12  H7  7HP  1141      -1.117  44.762 227.068  1.00  0.00     0.187 HD
HETATM   13  N8  7HP  1141      -0.165  42.924 226.984  1.00 20.00    -0.309 N 
ATOM     14  H8  7HP  1141      -0.820  42.419 226.386  1.00  0.00     0.186 HD
ENDROOT
TORSDOF 0
ENDMDL
MODEL 4
REMARK VINA RESULT:      -6.0      2.267      3.460
REMARK  0 active torsions:
REMARK  status: ('A' for Active; 'I' for Inactive)
ROOT
HETATM    1  C9  7HP  1141       0.668  45.663 228.633  1.00 20.00     0.139 A 
HETATM    2  C4  7HP  1141       0.961  44.366 228.218  1.00 20.00     0.084 A 
HETATM    3  N3  7HP  1141       0.184  43.571 227.448  1.00 20.00    -0.349 N 
ATOM      4  H3  7HP  1141      -0.710  43.846 227.043  1.00  0.00     0.166 HD
HETATM    5  C2  7HP  1141       0.766  42.344 227.288  1.00 20.00     0.184 A 
HETATM    6  N1  7HP  1141       1.987  41.999 227.830  1.00 20.00    -0.318 N 
ATOM      7  H1  7HP  1141       2.329  41.054 227.655  1.00  0.00     0.169 HD
HETATM    8  C6  7HP  1141       2.779  42.826 228.586  1.00 20.00     0.276 A 
HETATM    9  O6  7HP  1141       3.877  42.467 228.952  1.00 20.00    -0.266 OA
HETATM   10  C5  7HP  1141       2.189  44.056 228.767  1.00 20.00     0.144 A 
HETATM   11  N7  7HP  1141       2.617  45.151 229.477  1.00 20.00    -0.294 N 
ATOM     12  H7  7HP  1141       3.492  45.242 229.994  1.00  0.00     0.187 HD
HETATM   13  N8  7HP  1141       1.691  46.043 229.358  1.00 20.00    -0.309 N 
ATOM     14  H8  7HP  1141       1.750  46.964 229.791  1.00  0.00     0.186 HD
ENDROOT
TORSDOF 0
ENDMDL
MODEL 5
REMARK VINA RESULT:      -5.9      1.768      2.518
REMARK  0 active torsions:
REMARK  status: ('A' for Active; 'I' for Inactive)
ROOT
HETATM    1  C9  7HP  1141       3.709  43.081 229.380  1.00 20.00     0.139 A 
HETATM    2  C4  7HP  1141       2.514  43.120 228.665  1.00 20.00     0.084 A 
HETATM    3  N3  7HP  1141       1.992  42.125 227.913  1.00 20.00    -0.349 N 
ATOM      4  H3  7HP  1141       2.404  41.198 227.807  1.00  0.00     0.166 HD
HETATM    5  C2  7HP  1141       0.835  42.537 227.313  1.00 20.00     0.184 A 
HETATM    6  N1  7HP  1141       0.287  43.792 227.486  1.00 20.00    -0.318 N 
ATOM      7  H1  7HP  1141      -0.578  43.999 226.987  1.00  0.00     0.169 HD
HETATM    8  C6  7HP  1141       0.813  44.782 228.276  1.00 20.00     0.276 A 
HETATM    9  O6  7HP  1141       0.219  45.827 228.436  1.00 20.00    -0.266 OA
HETATM   10  C5  7HP  1141       1.988  44.380 228.867  1.00 20.00     0.144 A 
HETATM   11  N7  7HP  1141       2.846  45.063 229.694  1.00 20.00    -0.294 N 
ATOM     12  H7  7HP  1141       2.737  46.018 230.036  1.00  0.00     0.187 HD
HETATM   13  N8  7HP  1141       3.819  44.255 229.952  1.00 20.00    -0.309 N 
ATOM     14  H8  7HP  1141       4.606  44.508 230.549  1.00  0.00     0.186 HD
ENDROOT
TORSDOF 0
ENDMDL
MODEL 6
REMARK VINA RESULT:      -5.9      2.046      2.228
REMARK  0 active torsions:
REMARK  status: ('A' for Active; 'I' for Inactive)
ROOT
HETATM    1  C9  7HP  1141       0.639  42.442 227.526  1.00 20.00     0.139 A 
HETATM    2  C4  7HP  1141       0.973  43.594 228.234  1.00 20.00     0.084 A 
HETATM    3  N3  7HP  1141       0.158  44.640 228.503  1.00 20.00    -0.349 N 
ATOM      4  H3  7HP  1141      -0.826  44.693 228.242  1.00  0.00     0.166 HD
HETATM    5  C2  7HP  1141       0.841  45.617 229.172  1.00 20.00     0.184 A 
HETATM    6  N1  7HP  1141       2.169  45.515 229.531  1.00 20.00    -0.318 N 
ATOM      7  H1  7HP  1141       2.584  46.306 230.024  1.00  0.00     0.169 HD
HETATM    8  C6  7HP  1141       2.976  44.436 229.277  1.00 20.00     0.276 A 
HETATM    9  O6  7HP  1141       4.110  44.397 229.703  1.00 20.00    -0.266 OA
HETATM   10  C5  7HP  1141       2.300  43.456 228.586  1.00 20.00     0.144 A 
HETATM   11  N7  7HP  1141       2.735  42.244 228.109  1.00 20.00    -0.294 N 
ATOM     12  H7  7HP  1141       3.669  41.845 228.210  1.00  0.00     0.187 HD
HETATM   13  N8  7HP  1141       1.726  41.710 227.506  1.00 20.00    -0.309 N 
ATOM     14  H8  7HP  1141       1.770  40.798 227.053  1.00  0.00     0.186 HD
ENDROOT
TORSDOF 0
ENDMDL
MODEL 7
REMARK VINA RESULT:      -5.8      2.754      3.280
REMARK  0 active torsions:
REMARK  status: ('A' for Active; 'I' for Inactive)
ROOT
HETATM    1  C9  7HP  1141       4.245  44.260 230.995  1.00 20.00     0.139 A 
HETATM    2  C4  7HP  1141       2.989  44.085 230.418  1.00 20.00     0.084 A 
HETATM    3  N3  7HP  1141       1.830  44.653 230.821  1.00 20.00    -0.349 N 
ATOM      4  H3  7HP  1141       1.744  45.318 231.590  1.00  0.00     0.166 HD
HETATM    5  C2  7HP  1141       0.789  44.211 230.054  1.00 20.00     0.184 A 
HETATM    6  N1  7HP  1141       0.932  43.325 229.006  1.00 20.00    -0.318 N 
ATOM      7  H1  7HP  1141       0.088  43.055 228.501  1.00  0.00     0.169 HD
HETATM    8  C6  7HP  1141       2.119  42.778 228.589  1.00 20.00     0.276 A 
HETATM    9  O6  7HP  1141       2.164  42.073 227.605  1.00 20.00    -0.266 OA
HETATM   10  C5  7HP  1141       3.169  43.205 229.370  1.00 20.00     0.144 A 
HETATM   11  N7  7HP  1141       4.502  42.880 229.321  1.00 20.00    -0.294 N 
ATOM     12  H7  7HP  1141       4.957  42.255 228.655  1.00  0.00     0.187 HD
HETATM   13  N8  7HP  1141       5.066  43.524 230.288  1.00 20.00    -0.309 N 
ATOM     14  H8  7HP  1141       6.065  43.464 230.485  1.00  0.00     0.186 HD
ENDROOT
TORSDOF 0
ENDMDL
MODEL 8
REMARK VINA RESULT:      -5.8      2.115      2.771
REMARK  0 active torsions:
REMARK  status: ('A' for Active; 'I' for Inactive)
ROOT
HETATM    1  C9  7HP  1141       0.864  45.488 228.128  1.00 20.00     0.139 A 
HETATM    2  C4  7HP  1141       1.576  44.848 229.140  1.00 20.00     0.084 A 
HETATM    3  N3  7HP  1141       1.433  45.038 230.472  1.00 20.00    -0.349 N 
ATOM      4  H3  7HP  1141       0.748  45.660 230.900  1.00  0.00     0.166 HD
HETATM    5  C2  7HP  1141       2.335  44.279 231.162  1.00 20.00     0.184 A 
HETATM    6  N1  7HP  1141       3.241  43.429 230.561  1.00 20.00    -0.318 N 
ATOM      7  H1  7HP  1141       3.876  42.912 231.170  1.00  0.00     0.169 HD
HETATM    8  C6  7HP  1141       3.357  43.224 229.210  1.00 20.00     0.276 A 
HETATM    9  O6  7HP  1141       4.124  42.395 228.773  1.00 20.00    -0.266 OA
HETATM   10  C5  7HP  1141       2.463  44.000 228.508  1.00 20.00     0.144 A 
HETATM   11  N7  7HP  1141       2.268  44.127 227.154  1.00 20.00    -0.294 N 
ATOM     12  H7  7HP  1141       2.765  43.629 226.414  1.00  0.00     0.187 HD
HETATM   13  N8  7HP  1141       1.331  45.002 227.004  1.00 20.00    -0.309 N 
ATOM     14  H8  7HP  1141       0.985  45.292 226.090  1.00  0.00     0.186 HD
ENDROOT
TORSDOF 0
ENDMDL
MODEL 9
REMARK VINA RESULT:      -5.7      2.507      3.771
REMARK  0 active torsions:
REMARK  status: ('A' for Active; 'I' for Inactive)
ROOT
HETATM    1  C9  7HP  1141       1.121  45.875 228.561  1.00 20.00     0.139 A 
HETATM    2  C4  7HP  1141       0.438  44.709 228.223  1.00 20.00     0.084 A 
HETATM    3  N3  7HP  1141       0.162  44.269 226.974  1.00 20.00    -0.349 N 
ATOM      4  H3  7HP  1141       0.458  44.733 226.115  1.00  0.00     0.166 HD
HETATM    5  C2  7HP  1141      -0.571  43.117 227.025  1.00 20.00     0.184 A 
HETATM    6  N1  7HP  1141      -0.944  42.498 228.200  1.00 20.00    -0.318 N 
ATOM      7  H1  7HP  1141      -1.497  41.643 228.125  1.00  0.00     0.169 HD
HETATM    8  C6  7HP  1141      -0.633  42.939 229.461  1.00 20.00     0.276 A 
HETATM    9  O6  7HP  1141      -0.931  42.287 230.437  1.00 20.00    -0.266 OA
HETATM   10  C5  7HP  1141       0.089  44.110 229.416  1.00 20.00     0.144 A 
HETATM   11  N7  7HP  1141       0.567  44.898 230.435  1.00 20.00    -0.294 N 
ATOM     12  H7  7HP  1141       0.478  44.726 231.437  1.00  0.00     0.187 HD
HETATM   13  N8  7HP  1141       1.153  45.901 229.870  1.00 20.00    -0.309 N 
ATOM     14  H8  7HP  1141       1.601  46.650 230.398  1.00  0.00     0.186 HD
ENDROOT
TORSDOF 0
ENDMDL
