MODEL 1
REMARK VINA RESULT:      -6.5      0.000      0.000
REMARK  1 active torsions:
REMARK  status: ('A' for Active; 'I' for Inactive)
REMARK    1  A    between atoms: C10_5  and  C9_4 
ROOT
HETATM    1  C2  TMG  7263       1.692  42.953 228.213  1.00 20.00     0.060 C 
HETATM    2  N7  TMG  7263       0.722  42.605 227.350  1.00 20.00    -0.339 N 
ATOM      3  H7  TMG  7263       0.846  41.984 226.550  1.00  0.00     0.167 HD
HETATM    4  C9  TMG  7263      -0.386  43.171 227.681  1.00 20.00     0.134 C 
HETATM    5  N8  TMG  7263      -0.347  43.754 228.897  1.00 20.00    -0.339 N 
ATOM      6  H8  TMG  7263      -1.110  44.118 229.467  1.00  0.00     0.167 HD
HETATM    7  C6  TMG  7263       1.043  43.723 229.167  1.00 20.00     0.060 C 
HETATM    8  C5  TMG  7263       1.698  44.134 230.321  1.00 20.00     0.032 C 
HETATM    9  C4  TMG  7263       3.082  43.921 230.317  1.00 20.00     0.002 C 
HETATM   10  C3  TMG  7263       3.751  43.196 229.316  1.00 20.00     0.002 C 
HETATM   11  C1  TMG  7263       3.054  42.685 228.217  1.00 20.00     0.032 C 
ENDROOT
BRANCH   4  12
HETATM   12  C10 TMG  7263      -1.601  42.802 226.955  1.00 20.00     0.083 C 
HETATM   13  C14 TMG  7263      -2.781  42.412 227.437  1.00 20.00     0.084 C 
HETATM   14  S13 TMG  7263      -4.028  42.324 226.144  1.00 20.00    -0.094 SA
HETATM   15  C12 TMG  7263      -2.791  42.861 224.981  1.00 20.00     0.138 C 
HETATM   16  N11 TMG  7263      -1.702  43.127 225.554  1.00 20.00    -0.357 N 
ATOM     17  H11 TMG  7263      -0.924  43.553 225.048  1.00  0.00     0.166 HD
ENDBRANCH   4  12
TORSDOF 1
ENDMDL
MODEL 2
REMARK VINA RESULT:      -6.3      2.788      5.733
REMARK  1 active torsions:
REMARK  status: ('A' for Active; 'I' for Inactive)
REMARK    1  A    between atoms: C10_5  and  C9_4 
ROOT
HETATM    1  C2  TMG  7263      -1.350  42.409 228.368  1.00 20.00     0.060 C 
HETATM    2  N7  TMG  7263      -0.284  42.484 229.183  1.00 20.00    -0.339 N 
ATOM      3  H7  TMG  7263      -0.197  42.004 230.079  1.00  0.00     0.167 HD
HETATM    4  C9  TMG  7263       0.613  43.251 228.667  1.00 20.00     0.134 C 
HETATM    5  N8  TMG  7263       0.360  43.580 227.383  1.00 20.00    -0.339 N 
ATOM      6  H8  TMG  7263       0.968  44.023 226.695  1.00  0.00     0.167 HD
HETATM    7  C6  TMG  7263      -0.980  43.141 227.250  1.00 20.00     0.060 C 
HETATM    8  C5  TMG  7263      -1.774  43.157 226.110  1.00 20.00     0.032 C 
HETATM    9  C4  TMG  7263      -3.046  42.595 226.274  1.00 20.00     0.002 C 
HETATM   10  C3  TMG  7263      -3.446  41.910 227.434  1.00 20.00     0.002 C 
HETATM   11  C1  TMG  7263      -2.587  41.800 228.531  1.00 20.00     0.032 C 
ENDROOT
BRANCH   4  12
HETATM   12  C10 TMG  7263       1.914  43.345 229.327  1.00 20.00     0.083 C 
HETATM   13  C14 TMG  7263       3.120  43.039 228.851  1.00 20.00     0.084 C 
HETATM   14  S13 TMG  7263       4.428  43.577 229.965  1.00 20.00    -0.094 SA
HETATM   15  C12 TMG  7263       3.172  44.222 231.050  1.00 20.00     0.138 C 
HETATM   16  N11 TMG  7263       2.022  44.101 230.551  1.00 20.00    -0.357 N 
ATOM     17  H11 TMG  7263       1.202  44.519 230.993  1.00  0.00     0.166 HD
ENDBRANCH   4  12
TORSDOF 1
ENDMDL
MODEL 3
REMARK VINA RESULT:      -6.3      1.589      2.134
REMARK  1 active torsions:
REMARK  status: ('A' for Active; 'I' for Inactive)
REMARK    1  A    between atoms: C10_5  and  C9_4 
ROOT
HETATM    1  C2  TMG  7263       1.183  42.579 228.627  1.00 20.00     0.060 C 
HETATM    2  N7  TMG  7263       0.017  42.044 228.227  1.00 20.00    -0.339 N 
ATOM      3  H7  TMG  7263      -0.079  41.304 227.532  1.00  0.00     0.167 HD
HETATM    4  C9  TMG  7263      -0.961  42.601 228.852  1.00 20.00     0.134 C 
HETATM    5  N8  TMG  7263      -0.565  43.381 229.879  1.00 20.00    -0.339 N 
ATOM      6  H8  TMG  7263      -1.117  43.798 230.628  1.00  0.00     0.167 HD
HETATM    7  C6  TMG  7263       0.827  43.466 229.633  1.00 20.00     0.060 C 
HETATM    8  C5  TMG  7263       1.794  44.097 230.405  1.00 20.00     0.032 C 
HETATM    9  C4  TMG  7263       3.105  43.955 229.935  1.00 20.00     0.002 C 
HETATM   10  C3  TMG  7263       3.458  43.107 228.872  1.00 20.00     0.002 C 
HETATM   11  C1  TMG  7263       2.483  42.384 228.180  1.00 20.00     0.032 C 
ENDROOT
BRANCH   4  12
HETATM   12  C10 TMG  7263      -2.306  42.055 228.669  1.00 20.00     0.083 C 
HETATM   13  C14 TMG  7263      -3.063  42.038 227.573  1.00 20.00     0.084 C 
HETATM   14  S13 TMG  7263      -4.530  41.020 227.797  1.00 20.00    -0.094 SA
HETATM   15  C12 TMG  7263      -3.973  40.667 229.451  1.00 20.00     0.138 C 
HETATM   16  N11 TMG  7263      -2.844  41.176 229.678  1.00 20.00    -0.357 N 
ATOM     17  H11 TMG  7263      -2.332  40.976 230.538  1.00  0.00     0.166 HD
ENDBRANCH   4  12
TORSDOF 1
ENDMDL
MODEL 4
REMARK VINA RESULT:      -5.7      8.223      9.029
REMARK  1 active torsions:
REMARK  status: ('A' for Active; 'I' for Inactive)
REMARK    1  A    between atoms: C10_5  and  C9_4 
ROOT
HETATM    1  C2  TMG  7263       1.271  38.787 236.588  1.00 20.00     0.060 C 
HETATM    2  N7  TMG  7263       0.270  38.919 235.700  1.00 20.00    -0.339 N 
ATOM      3  H7  TMG  7263      -0.448  39.643 235.731  1.00  0.00     0.167 HD
HETATM    4  C9  TMG  7263       0.352  37.998 234.804  1.00 20.00     0.134 C 
HETATM    5  N8  TMG  7263       1.511  37.309 234.849  1.00 20.00    -0.339 N 
ATOM      6  H8  TMG  7263       1.905  36.656 234.172  1.00  0.00     0.167 HD
HETATM    7  C6  TMG  7263       2.033  37.739 236.094  1.00 20.00     0.060 C 
HETATM    8  C5  TMG  7263       3.256  37.413 236.665  1.00 20.00     0.032 C 
HETATM    9  C4  TMG  7263       3.522  38.047 237.885  1.00 20.00     0.002 C 
HETATM   10  C3  TMG  7263       2.713  39.064 238.420  1.00 20.00     0.002 C 
HETATM   11  C1  TMG  7263       1.544  39.465 237.769  1.00 20.00     0.032 C 
ENDROOT
BRANCH   4  12
HETATM   12  C10 TMG  7263      -0.557  38.056 233.660  1.00 20.00     0.083 C 
HETATM   13  C14 TMG  7263      -0.696  37.193 232.654  1.00 20.00     0.084 C 
HETATM   14  S13 TMG  7263      -2.130  37.585 231.639  1.00 20.00    -0.094 SA
HETATM   15  C12 TMG  7263      -2.457  38.962 232.718  1.00 20.00     0.138 C 
HETATM   16  N11 TMG  7263      -1.653  38.993 233.687  1.00 20.00    -0.357 N 
ATOM     17  H11 TMG  7263      -1.771  39.653 234.457  1.00  0.00     0.166 HD
ENDBRANCH   4  12
TORSDOF 1
ENDMDL
MODEL 5
REMARK VINA RESULT:      -5.7      2.391      5.904
REMARK  1 active torsions:
REMARK  status: ('A' for Active; 'I' for Inactive)
REMARK    1  A    between atoms: C10_5  and  C9_4 
ROOT
HETATM    1  C2  TMG  7263      -3.021  42.206 227.173  1.00 20.00     0.060 C 
HETATM    2  N7  TMG  7263      -1.881  42.510 227.818  1.00 20.00    -0.339 N 
ATOM      3  H7  TMG  7263      -1.640  42.199 228.759  1.00  0.00     0.167 HD
HETATM    4  C9  TMG  7263      -1.137  43.251 227.072  1.00 20.00     0.134 C 
HETATM    5  N8  TMG  7263      -1.570  43.332 225.797  1.00 20.00    -0.339 N 
ATOM      6  H8  TMG  7263      -1.097  43.702 224.973  1.00  0.00     0.167 HD
HETATM    7  C6  TMG  7263      -2.863  42.765 225.914  1.00 20.00     0.060 C 
HETATM    8  C5  TMG  7263      -3.782  42.519 224.902  1.00 20.00     0.032 C 
HETATM    9  C4  TMG  7263      -4.959  41.887 225.319  1.00 20.00     0.002 C 
HETATM   10  C3  TMG  7263      -5.146  41.378 226.616  1.00 20.00     0.002 C 
HETATM   11  C1  TMG  7263      -4.159  41.530 227.593  1.00 20.00     0.032 C 
ENDROOT
BRANCH   4  12
HETATM   12  C10 TMG  7263       0.215  43.567 227.532  1.00 20.00     0.083 C 
HETATM   13  C14 TMG  7263       0.603  44.439 228.461  1.00 20.00     0.084 C 
HETATM   14  S13 TMG  7263       2.353  44.268 228.841  1.00 20.00    -0.094 SA
HETATM   15  C12 TMG  7263       2.433  42.946 227.651  1.00 20.00     0.138 C 
HETATM   16  N11 TMG  7263       1.297  42.683 227.175  1.00 20.00    -0.357 N 
ATOM     17  H11 TMG  7263       1.148  41.879 226.563  1.00  0.00     0.166 HD
ENDBRANCH   4  12
TORSDOF 1
ENDMDL
MODEL 6
REMARK VINA RESULT:      -5.7      8.497      9.216
REMARK  1 active torsions:
REMARK  status: ('A' for Active; 'I' for Inactive)
REMARK    1  A    between atoms: C10_5  and  C9_4 
ROOT
HETATM    1  C2  TMG  7263       2.265  37.656 236.304  1.00 20.00     0.060 C 
HETATM    2  N7  TMG  7263       1.540  37.358 235.211  1.00 20.00    -0.339 N 
ATOM      3  H7  TMG  7263       1.686  36.541 234.618  1.00  0.00     0.167 HD
HETATM    4  C9  TMG  7263       0.635  38.254 235.024  1.00 20.00     0.134 C 
HETATM    5  N8  TMG  7263       0.498  39.102 236.065  1.00 20.00    -0.339 N 
ATOM      6  H8  TMG  7263      -0.236  39.784 236.255  1.00  0.00     0.167 HD
HETATM    7  C6  TMG  7263       1.652  38.787 236.824  1.00 20.00     0.060 C 
HETATM    8  C5  TMG  7263       2.028  39.300 238.059  1.00 20.00     0.032 C 
HETATM    9  C4  TMG  7263       3.198  38.745 238.593  1.00 20.00     0.002 C 
HETATM   10  C3  TMG  7263       3.858  37.640 238.029  1.00 20.00     0.002 C 
HETATM   11  C1  TMG  7263       3.395  37.058 236.846  1.00 20.00     0.032 C 
ENDROOT
BRANCH   4  12
HETATM   12  C10 TMG  7263      -0.357  38.034 233.972  1.00 20.00     0.083 C 
HETATM   13  C14 TMG  7263      -0.584  36.938 233.250  1.00 20.00     0.084 C 
HETATM   14  S13 TMG  7263      -2.084  37.092 232.267  1.00 20.00    -0.094 SA
HETATM   15  C12 TMG  7263      -2.310  38.719 232.954  1.00 20.00     0.138 C 
HETATM   16  N11 TMG  7263      -1.434  38.981 233.821  1.00 20.00    -0.357 N 
ATOM     17  H11 TMG  7263      -1.484  39.827 234.390  1.00  0.00     0.166 HD
ENDBRANCH   4  12
TORSDOF 1
ENDMDL
MODEL 7
REMARK VINA RESULT:      -5.6      2.774      5.704
REMARK  1 active torsions:
REMARK  status: ('A' for Active; 'I' for Inactive)
REMARK    1  A    between atoms: C10_5  and  C9_4 
ROOT
HETATM    1  C2  TMG  7263      -2.497  42.066 227.896  1.00 20.00     0.060 C 
HETATM    2  N7  TMG  7263      -1.290  42.657 227.857  1.00 20.00    -0.339 N 
ATOM      3  H7  TMG  7263      -1.002  43.353 227.169  1.00  0.00     0.167 HD
HETATM    4  C9  TMG  7263      -0.552  42.215 228.815  1.00 20.00     0.134 C 
HETATM    5  N8  TMG  7263      -1.232  41.479 229.719  1.00 20.00    -0.339 N 
ATOM      6  H8  TMG  7263      -0.942  41.156 230.642  1.00  0.00     0.167 HD
HETATM    7  C6  TMG  7263      -2.456  41.277 229.037  1.00 20.00     0.060 C 
HETATM    8  C5  TMG  7263      -3.595  40.631 229.501  1.00 20.00     0.032 C 
HETATM    9  C4  TMG  7263      -4.679  40.645 228.614  1.00 20.00     0.002 C 
HETATM   10  C3  TMG  7263      -4.696  41.391 227.424  1.00 20.00     0.002 C 
HETATM   11  C1  TMG  7263      -3.580  42.135 227.031  1.00 20.00     0.032 C 
ENDROOT
BRANCH   4  12
HETATM   12  C10 TMG  7263       0.750  42.844 229.038  1.00 20.00     0.083 C 
HETATM   13  C14 TMG  7263       1.118  43.692 229.998  1.00 20.00     0.084 C 
HETATM   14  S13 TMG  7263       2.895  43.974 229.986  1.00 20.00    -0.094 SA
HETATM   15  C12 TMG  7263       3.016  42.851 228.610  1.00 20.00     0.138 C 
HETATM   16  N11 TMG  7263       1.901  42.333 228.336  1.00 20.00    -0.357 N 
ATOM     17  H11 TMG  7263       1.815  41.585 227.647  1.00  0.00     0.166 HD
ENDBRANCH   4  12
TORSDOF 1
ENDMDL
MODEL 8
REMARK VINA RESULT:      -5.3      9.500     10.485
REMARK  1 active torsions:
REMARK  status: ('A' for Active; 'I' for Inactive)
REMARK    1  A    between atoms: C10_5  and  C9_4 
ROOT
HETATM    1  C2  TMG  7263       2.797  38.557 237.736  1.00 20.00     0.060 C 
HETATM    2  N7  TMG  7263       2.297  38.765 236.506  1.00 20.00    -0.339 N 
ATOM      3  H7  TMG  7263       2.632  39.470 235.850  1.00  0.00     0.167 HD
HETATM    4  C9  TMG  7263       1.332  37.943 236.278  1.00 20.00     0.134 C 
HETATM    5  N8  TMG  7263       1.232  36.966 237.203  1.00 20.00    -0.339 N 
ATOM      6  H8  TMG  7263       0.683  36.107 237.182  1.00  0.00     0.167 HD
HETATM    7  C6  TMG  7263       2.097  37.458 238.211  1.00 20.00     0.060 C 
HETATM    8  C5  TMG  7263       2.455  36.843 239.404  1.00 20.00     0.032 C 
HETATM    9  C4  TMG  7263       3.385  37.552 240.174  1.00 20.00     0.002 C 
HETATM   10  C3  TMG  7263       4.046  38.705 239.719  1.00 20.00     0.002 C 
HETATM   11  C1  TMG  7263       3.760  39.245 238.462  1.00 20.00     0.032 C 
ENDROOT
BRANCH   4  12
HETATM   12  C10 TMG  7263       0.752  37.905 234.936  1.00 20.00     0.083 C 
HETATM   13  C14 TMG  7263       1.125  37.181 233.881  1.00 20.00     0.084 C 
HETATM   14  S13 TMG  7263      -0.070  37.300 232.541  1.00 20.00    -0.094 SA
HETATM   15  C12 TMG  7263      -1.046  38.375 233.571  1.00 20.00     0.138 C 
HETATM   16  N11 TMG  7263      -0.547  38.493 234.721  1.00 20.00    -0.357 N 
ATOM     17  H11 TMG  7263      -1.040  38.984 235.468  1.00  0.00     0.166 HD
ENDBRANCH   4  12
TORSDOF 1
ENDMDL
MODEL 9
REMARK VINA RESULT:      -5.3      8.262      9.599
REMARK  1 active torsions:
REMARK  status: ('A' for Active; 'I' for Inactive)
REMARK    1  A    between atoms: C10_5  and  C9_4 
ROOT
HETATM    1  C2  TMG  7263       0.643  37.229 232.688  1.00 20.00     0.060 C 
HETATM    2  N7  TMG  7263       1.279  37.355 233.865  1.00 20.00    -0.339 N 
ATOM      3  H7  TMG  7263       2.217  37.007 234.063  1.00  0.00     0.167 HD
HETATM    4  C9  TMG  7263       0.530  37.981 234.706  1.00 20.00     0.134 C 
HETATM    5  N8  TMG  7263      -0.561  38.537 234.139  1.00 20.00    -0.339 N 
ATOM      6  H8  TMG  7263      -1.219  39.213 234.525  1.00  0.00     0.167 HD
HETATM    7  C6  TMG  7263      -0.545  37.924 232.862  1.00 20.00     0.060 C 
HETATM    8  C5  TMG  7263      -1.404  38.153 231.795  1.00 20.00     0.032 C 
HETATM    9  C4  TMG  7263      -1.097  37.436 230.632  1.00 20.00     0.002 C 
HETATM   10  C3  TMG  7263       0.075  36.677 230.477  1.00 20.00     0.002 C 
HETATM   11  C1  TMG  7263       0.991  36.554 231.525  1.00 20.00     0.032 C 
ENDROOT
BRANCH   4  12
HETATM   12  C10 TMG  7263       1.098  38.354 236.001  1.00 20.00     0.083 C 
HETATM   13  C14 TMG  7263       2.294  38.058 236.509  1.00 20.00     0.084 C 
HETATM   14  S13 TMG  7263       2.611  38.970 238.028  1.00 20.00    -0.094 SA
HETATM   15  C12 TMG  7263       1.014  39.734 237.846  1.00 20.00     0.138 C 
HETATM   16  N11 TMG  7263       0.454  39.388 236.772  1.00 20.00    -0.357 N 
ATOM     17  H11 TMG  7263      -0.417  39.821 236.462  1.00  0.00     0.166 HD
ENDBRANCH   4  12
TORSDOF 1
ENDMDL
