MODEL 1
REMARK VINA RESULT:      -7.0      0.000      0.000
REMARK  7 active torsions:
REMARK  status: ('A' for Active; 'I' for Inactive)
REMARK    1  A    between atoms: C2_6  and  C21_2 
REMARK       I    between atoms: C21_2  and  N2_3 
REMARK    2  A    between atoms: C3_9  and  O2_10 
REMARK    3  A    between atoms: C4_12  and  N1_13 
REMARK    4  A    between atoms: C18_17  and  O7_18 
REMARK    5  A    between atoms: C17_20  and  O6_21 
REMARK    6  A    between atoms: C13_31  and  O4_32 
REMARK    7  A    between atoms: C10_36  and  N7_37 
ROOT
HETATM    1  C2  MIY  5181      -1.841  42.559 227.175  1.00 20.00     0.116 C 
HETATM    2  C1  MIY  5181      -2.649  41.699 228.071  1.00 20.00     0.209 C 
HETATM    3  O1  MIY  5181      -3.779  41.401 227.740  1.00 20.00    -0.288 OA
HETATM    4  C3  MIY  5181      -0.536  42.799 227.504  1.00 20.00     0.108 C 
HETATM    5  C4  MIY  5181       0.227  42.099 228.673  1.00 20.00     0.049 C 
HETATM    6  C5  MIY  5181      -0.570  40.959 229.394  1.00 20.00     0.088 C 
HETATM    7  C18 MIY  5181      -2.080  41.246 229.440  1.00 20.00     0.180 C 
HETATM    8  C17 MIY  5181      -2.735  40.065 230.188  1.00 20.00     0.097 C 
HETATM    9  C16 MIY  5181      -2.201  38.842 230.416  1.00 20.00     0.030 C 
HETATM   10  C7  MIY  5181      -0.814  38.464 229.971  1.00 20.00     0.030 C 
HETATM   11  C6  MIY  5181      -0.259  39.505 228.970  1.00 20.00     0.024 C 
HETATM   12  C15 MIY  5181      -3.042  37.845 231.114  1.00 20.00     0.194 C 
HETATM   13  O5  MIY  5181      -4.127  38.094 231.660  1.00 20.00    -0.287 OA
HETATM   14  C14 MIY  5181      -2.647  36.418 231.072  1.00 20.00     0.056 A 
HETATM   15  C9  MIY  5181      -1.638  36.012 230.203  1.00 20.00    -0.019 A 
HETATM   16  C8  MIY  5181      -0.913  37.057 229.334  1.00 20.00     0.051 C 
HETATM   17  C13 MIY  5181      -3.357  35.542 231.886  1.00 20.00     0.080 A 
HETATM   18  C12 MIY  5181      -3.049  34.184 231.854  1.00 20.00     0.039 A 
HETATM   19  C11 MIY  5181      -2.044  33.749 230.990  1.00 20.00     0.027 A 
HETATM   20  C10 MIY  5181      -1.338  34.644 230.170  1.00 20.00     0.017 A 
ENDROOT
BRANCH   1  21
HETATM   21  C21 MIY  5181      -2.463  43.129 225.941  1.00 20.00     0.256 C 
HETATM   22  N2  MIY  5181      -3.526  43.935 226.158  1.00 20.00    -0.366 N 
ATOM     23  H22 MIY  5181      -3.894  44.134 227.089  1.00  0.00     0.159 HD
ATOM     24  H21 MIY  5181      -3.950  44.324 225.316  1.00  0.00     0.159 HD
HETATM   25  O8  MIY  5181      -2.016  42.887 224.808  1.00 20.00    -0.268 OA
ENDBRANCH   1  21
BRANCH   4  26
HETATM   26  O2  MIY  5181       0.148  43.687 226.760  1.00 20.00    -0.358 OA
ATOM     27  H2  MIY  5181       0.458  43.407 225.907  1.00  0.00     0.218 HD
ENDBRANCH   4  26
BRANCH   7  28
HETATM   28  O7  MIY  5181      -2.290  42.348 230.334  1.00 20.00    -0.374 OA
ATOM     29  H7  MIY  5181      -2.296  41.975 231.207  1.00  0.00     0.211 HD
ENDBRANCH   7  28
BRANCH   5  30
HETATM   30  N1  MIY  5181       1.003  43.086 229.597  1.00 20.00    -0.390 N 
HETATM   31  C19 MIY  5181       2.449  43.322 229.346  1.00 20.00     0.149 C 
HETATM   32  C20 MIY  5181       0.356  44.405 229.910  1.00 20.00     0.149 C 
ENDBRANCH   5  30
BRANCH   8  33
HETATM   33  O6  MIY  5181      -3.929  40.298 230.758  1.00 20.00    -0.361 OA
ATOM     34  H6  MIY  5181      -4.375  41.088 230.477  1.00  0.00     0.217 HD
ENDBRANCH   8  33
BRANCH  17  35
HETATM   35  O4  MIY  5181      -4.341  36.040 232.716  1.00 20.00    -0.360 OA
ATOM     36  H4  MIY  5181      -4.180  36.196 233.640  1.00  0.00     0.217 HD
ENDBRANCH  17  35
BRANCH  20  37
HETATM   37  N7  MIY  5181      -0.386  34.132 229.295  1.00 20.00    -0.291 NA
HETATM   38  C71 MIY  5181       0.122  32.823 229.755  1.00 20.00     0.116 C 
HETATM   39  CN7 MIY  5181      -1.164  33.870 228.077  1.00 20.00     0.116 C 
ENDBRANCH  20  37
TORSDOF 7
ENDMDL
MODEL 2
REMARK VINA RESULT:      -6.6      5.238      7.756
REMARK  7 active torsions:
REMARK  status: ('A' for Active; 'I' for Inactive)
REMARK    1  A    between atoms: C2_6  and  C21_2 
REMARK       I    between atoms: C21_2  and  N2_3 
REMARK    2  A    between atoms: C3_9  and  O2_10 
REMARK    3  A    between atoms: C4_12  and  N1_13 
REMARK    4  A    between atoms: C18_17  and  O7_18 
REMARK    5  A    between atoms: C17_20  and  O6_21 
REMARK    6  A    between atoms: C13_31  and  O4_32 
REMARK    7  A    between atoms: C10_36  and  N7_37 
ROOT
HETATM    1  C2  MIY  5181      -4.118  36.045 231.918  1.00 20.00     0.116 C 
HETATM    2  C1  MIY  5181      -3.216  36.853 232.772  1.00 20.00     0.209 C 
HETATM    3  O1  MIY  5181      -3.678  37.429 233.736  1.00 20.00    -0.288 OA
HETATM    4  C3  MIY  5181      -3.571  35.313 230.901  1.00 20.00     0.108 C 
HETATM    5  C4  MIY  5181      -2.037  35.128 230.666  1.00 20.00     0.049 C 
HETATM    6  C5  MIY  5181      -1.120  35.734 231.782  1.00 20.00     0.088 C 
HETATM    7  C18 MIY  5181      -1.720  37.010 232.398  1.00 20.00     0.180 C 
HETATM    8  C17 MIY  5181      -0.714  37.509 233.456  1.00 20.00     0.097 C 
HETATM    9  C16 MIY  5181       0.287  36.803 234.033  1.00 20.00     0.030 C 
HETATM   10  C7  MIY  5181       0.583  35.372 233.676  1.00 20.00     0.030 C 
HETATM   11  C6  MIY  5181      -0.578  34.762 232.855  1.00 20.00     0.024 C 
HETATM   12  C15 MIY  5181       1.096  37.480 235.070  1.00 20.00     0.194 C 
HETATM   13  O5  MIY  5181       1.045  38.692 235.327  1.00 20.00    -0.287 OA
HETATM   14  C14 MIY  5181       1.950  36.662 235.961  1.00 20.00     0.056 A 
HETATM   15  C9  MIY  5181       1.808  35.277 235.963  1.00 20.00    -0.019 A 
HETATM   16  C8  MIY  5181       0.802  34.611 235.006  1.00 20.00     0.051 C 
HETATM   17  C13 MIY  5181       2.828  37.344 236.797  1.00 20.00     0.080 A 
HETATM   18  C12 MIY  5181       3.624  36.621 237.682  1.00 20.00     0.039 A 
HETATM   19  C11 MIY  5181       3.501  35.232 237.706  1.00 20.00     0.027 A 
HETATM   20  C10 MIY  5181       2.607  34.555 236.860  1.00 20.00     0.017 A 
ENDROOT
BRANCH   1  21
HETATM   21  C21 MIY  5181      -5.587  36.041 232.193  1.00 20.00     0.256 C 
HETATM   22  N2  MIY  5181      -5.927  35.781 233.476  1.00 20.00    -0.366 N 
ATOM     23  H22 MIY  5181      -5.241  35.586 234.205  1.00  0.00     0.159 HD
ATOM     24  H21 MIY  5181      -6.929  35.779 233.663  1.00  0.00     0.159 HD
HETATM   25  O8  MIY  5181      -6.422  36.279 231.306  1.00 20.00    -0.268 OA
ENDBRANCH   1  21
BRANCH   4  26
HETATM   26  O2  MIY  5181      -4.408  34.693 230.051  1.00 20.00    -0.358 OA
ATOM     27  H2  MIY  5181      -4.036  34.292 229.274  1.00  0.00     0.218 HD
ENDBRANCH   4  26
BRANCH   7  28
HETATM   28  O7  MIY  5181      -1.674  38.041 231.400  1.00 20.00    -0.374 OA
ATOM     29  H7  MIY  5181      -2.521  38.022 230.971  1.00  0.00     0.211 HD
ENDBRANCH   7  28
BRANCH   5  30
HETATM   30  N1  MIY  5181      -1.592  35.384 229.195  1.00 20.00    -0.390 N 
HETATM   31  C19 MIY  5181      -2.148  36.554 228.467  1.00 20.00     0.149 C 
HETATM   32  C20 MIY  5181      -0.127  35.284 228.881  1.00 20.00     0.149 C 
ENDBRANCH   5  30
BRANCH   8  33
HETATM   33  O6  MIY  5181      -0.773  38.811 233.780  1.00 20.00    -0.361 OA
ATOM     34  H6  MIY  5181      -0.102  39.119 234.379  1.00  0.00     0.217 HD
ENDBRANCH   8  33
BRANCH  17  35
HETATM   35  O4  MIY  5181       2.898  38.721 236.721  1.00 20.00    -0.360 OA
ATOM     36  H4  MIY  5181       3.688  39.192 236.959  1.00  0.00     0.217 HD
ENDBRANCH  17  35
BRANCH  20  37
HETATM   37  N7  MIY  5181       2.499  33.174 236.978  1.00 20.00    -0.291 NA
HETATM   38  C71 MIY  5181       3.483  32.481 236.121  1.00 20.00     0.116 C 
HETATM   39  CN7 MIY  5181       2.912  32.927 238.365  1.00 20.00     0.116 C 
ENDBRANCH  20  37
TORSDOF 7
ENDMDL
MODEL 3
REMARK VINA RESULT:      -6.4      5.133      7.895
REMARK  7 active torsions:
REMARK  status: ('A' for Active; 'I' for Inactive)
REMARK    1  A    between atoms: C2_6  and  C21_2 
REMARK       I    between atoms: C21_2  and  N2_3 
REMARK    2  A    between atoms: C3_9  and  O2_10 
REMARK    3  A    between atoms: C4_12  and  N1_13 
REMARK    4  A    between atoms: C18_17  and  O7_18 
REMARK    5  A    between atoms: C17_20  and  O6_21 
REMARK    6  A    between atoms: C13_31  and  O4_32 
REMARK    7  A    between atoms: C10_36  and  N7_37 
ROOT
HETATM    1  C2  MIY  5181      -4.671  36.061 232.422  1.00 20.00     0.116 C 
HETATM    2  C1  MIY  5181      -3.688  36.889 233.160  1.00 20.00     0.209 C 
HETATM    3  O1  MIY  5181      -4.049  37.480 234.158  1.00 20.00    -0.288 OA
HETATM    4  C3  MIY  5181      -4.230  35.314 231.364  1.00 20.00     0.108 C 
HETATM    5  C4  MIY  5181      -2.730  35.133 230.970  1.00 20.00     0.049 C 
HETATM    6  C5  MIY  5181      -1.703  35.763 231.971  1.00 20.00     0.088 C 
HETATM    7  C18 MIY  5181      -2.242  37.047 232.626  1.00 20.00     0.180 C 
HETATM    8  C17 MIY  5181      -1.133  37.569 233.562  1.00 20.00     0.097 C 
HETATM    9  C16 MIY  5181      -0.071  36.878 234.041  1.00 20.00     0.030 C 
HETATM   10  C7  MIY  5181       0.195  35.442 233.678  1.00 20.00     0.030 C 
HETATM   11  C6  MIY  5181      -1.043  34.812 232.996  1.00 20.00     0.024 C 
HETATM   12  C15 MIY  5181       0.840  37.577 234.974  1.00 20.00     0.194 C 
HETATM   13  O5  MIY  5181       0.808  38.793 235.214  1.00 20.00    -0.287 OA
HETATM   14  C14 MIY  5181       1.790  36.779 235.783  1.00 20.00     0.056 A 
HETATM   15  C9  MIY  5181       1.658  35.394 235.823  1.00 20.00    -0.019 A 
HETATM   16  C8  MIY  5181       0.560  34.706 234.990  1.00 20.00     0.051 C 
HETATM   17  C13 MIY  5181       2.747  37.480 236.508  1.00 20.00     0.080 A 
HETATM   18  C12 MIY  5181       3.638  36.777 237.315  1.00 20.00     0.039 A 
HETATM   19  C11 MIY  5181       3.527  35.388 237.376  1.00 20.00     0.027 A 
HETATM   20  C10 MIY  5181       2.553  34.692 236.642  1.00 20.00     0.017 A 
ENDROOT
BRANCH   1  21
HETATM   21  C21 MIY  5181      -6.102  36.056 232.852  1.00 20.00     0.256 C 
HETATM   22  N2  MIY  5181      -6.303  35.796 234.164  1.00 20.00    -0.366 N 
ATOM     23  H22 MIY  5181      -5.543  35.601 234.816  1.00  0.00     0.159 HD
ATOM     24  H21 MIY  5181      -7.279  35.792 234.457  1.00  0.00     0.159 HD
HETATM   25  O8  MIY  5181      -7.028  36.292 232.059  1.00 20.00    -0.268 OA
ENDBRANCH   1  21
BRANCH   4  26
HETATM   26  O2  MIY  5181      -5.149  34.675 230.619  1.00 20.00    -0.358 OA
ATOM     27  H2  MIY  5181      -6.062  34.758 230.871  1.00  0.00     0.218 HD
ENDBRANCH   4  26
BRANCH   7  28
HETATM   28  O7  MIY  5181      -2.310  38.060 231.612  1.00 20.00    -0.374 OA
ATOM     29  H7  MIY  5181      -1.499  37.991 231.123  1.00  0.00     0.211 HD
ENDBRANCH   7  28
BRANCH   5  30
HETATM   30  N1  MIY  5181      -2.446  35.365 229.456  1.00 20.00    -0.390 N 
HETATM   31  C19 MIY  5181      -1.279  36.198 229.061  1.00 20.00     0.149 C 
HETATM   32  C20 MIY  5181      -2.507  34.174 228.543  1.00 20.00     0.149 C 
ENDBRANCH   5  30
BRANCH   8  33
HETATM   33  O6  MIY  5181      -1.165  38.877 233.869  1.00 20.00    -0.361 OA
ATOM     34  H6  MIY  5181      -0.332  39.266 234.110  1.00  0.00     0.217 HD
ENDBRANCH   8  33
BRANCH  17  35
HETATM   35  O4  MIY  5181       2.799  38.855 236.402  1.00 20.00    -0.360 OA
ATOM     36  H4  MIY  5181       3.246  39.388 237.050  1.00  0.00     0.217 HD
ENDBRANCH  17  35
BRANCH  20  37
HETATM   37  N7  MIY  5181       2.467  33.312 236.794  1.00 20.00    -0.291 NA
HETATM   38  C71 MIY  5181       3.463  32.614 235.955  1.00 20.00     0.116 C 
HETATM   39  CN7 MIY  5181       2.883  33.107 238.187  1.00 20.00     0.116 C 
ENDBRANCH  20  37
TORSDOF 7
ENDMDL
MODEL 4
REMARK VINA RESULT:      -6.3      4.981      8.182
REMARK  7 active torsions:
REMARK  status: ('A' for Active; 'I' for Inactive)
REMARK    1  A    between atoms: C2_6  and  C21_2 
REMARK       I    between atoms: C21_2  and  N2_3 
REMARK    2  A    between atoms: C3_9  and  O2_10 
REMARK    3  A    between atoms: C4_12  and  N1_13 
REMARK    4  A    between atoms: C18_17  and  O7_18 
REMARK    5  A    between atoms: C17_20  and  O6_21 
REMARK    6  A    between atoms: C13_31  and  O4_32 
REMARK    7  A    between atoms: C10_36  and  N7_37 
ROOT
HETATM    1  C2  MIY  5181       2.068  36.915 236.395  1.00 20.00     0.116 C 
HETATM    2  C1  MIY  5181       1.267  37.573 235.337  1.00 20.00     0.209 C 
HETATM    3  O1  MIY  5181       1.695  38.584 234.817  1.00 20.00    -0.288 OA
HETATM    4  C3  MIY  5181       1.631  35.721 236.897  1.00 20.00     0.108 C 
HETATM    5  C4  MIY  5181       0.430  34.904 236.323  1.00 20.00     0.049 C 
HETATM    6  C5  MIY  5181      -0.188  35.477 235.002  1.00 20.00     0.088 C 
HETATM    7  C18 MIY  5181      -0.125  37.013 234.950  1.00 20.00     0.180 C 
HETATM    8  C17 MIY  5181      -0.780  37.441 233.620  1.00 20.00     0.097 C 
HETATM    9  C16 MIY  5181      -1.008  36.666 232.532  1.00 20.00     0.030 C 
HETATM   10  C7  MIY  5181      -0.659  35.203 232.488  1.00 20.00     0.030 C 
HETATM   11  C6  MIY  5181       0.259  34.824 233.673  1.00 20.00     0.024 C 
HETATM   12  C15 MIY  5181      -1.604  37.312 231.342  1.00 20.00     0.194 C 
HETATM   13  O5  MIY  5181      -2.072  38.460 231.321  1.00 20.00    -0.287 OA
HETATM   14  C14 MIY  5181      -1.545  36.610 230.040  1.00 20.00     0.056 A 
HETATM   15  C9  MIY  5181      -0.744  35.479 229.907  1.00 20.00    -0.019 A 
HETATM   16  C8  MIY  5181       0.031  34.945 231.127  1.00 20.00     0.051 C 
HETATM   17  C13 MIY  5181      -2.271  37.163 228.990  1.00 20.00     0.080 A 
HETATM   18  C12 MIY  5181      -2.217  36.562 227.735  1.00 20.00     0.039 A 
HETATM   19  C11 MIY  5181      -1.420  35.429 227.573  1.00 20.00     0.027 A 
HETATM   20  C10 MIY  5181      -0.688  34.883 228.640  1.00 20.00     0.017 A 
ENDROOT
BRANCH   1  21
HETATM   21  C21 MIY  5181       3.327  37.562 236.877  1.00 20.00     0.256 C 
HETATM   22  N2  MIY  5181       3.168  38.794 237.410  1.00 20.00    -0.366 N 
ATOM     23  H22 MIY  5181       2.263  39.263 237.469  1.00  0.00     0.159 HD
ATOM     24  H21 MIY  5181       4.027  39.235 237.738  1.00  0.00     0.159 HD
HETATM   25  O8  MIY  5181       4.427  36.992 236.805  1.00 20.00    -0.268 OA
ENDBRANCH   1  21
BRANCH   4  26
HETATM   26  O2  MIY  5181       2.289  35.201 237.949  1.00 20.00    -0.358 OA
ATOM     27  H2  MIY  5181       3.237  35.250 237.948  1.00  0.00     0.218 HD
ENDBRANCH   4  26
BRANCH   7  28
HETATM   28  O7  MIY  5181      -1.037  37.522 235.935  1.00 20.00    -0.374 OA
ATOM     29  H7  MIY  5181      -1.419  36.758 236.352  1.00  0.00     0.211 HD
ENDBRANCH   7  28
BRANCH   5  30
HETATM   30  N1  MIY  5181      -0.584  34.430 237.407  1.00 20.00    -0.390 N 
HETATM   31  C19 MIY  5181      -1.041  35.399 238.438  1.00 20.00     0.149 C 
HETATM   32  C20 MIY  5181      -1.769  33.628 236.953  1.00 20.00     0.149 C 
ENDBRANCH   5  30
BRANCH   8  33
HETATM   33  O6  MIY  5181      -1.264  38.692 233.558  1.00 20.00    -0.361 OA
ATOM     34  H6  MIY  5181      -0.619  39.388 233.615  1.00  0.00     0.217 HD
ENDBRANCH   8  33
BRANCH  17  35
HETATM   35  O4  MIY  5181      -3.039  38.287 229.220  1.00 20.00    -0.360 OA
ATOM     36  H4  MIY  5181      -3.282  38.876 228.515  1.00  0.00     0.217 HD
ENDBRANCH  17  35
BRANCH  20  37
HETATM   37  N7  MIY  5181       0.127  33.783 228.393  1.00 20.00    -0.291 NA
HETATM   38  C71 MIY  5181      -0.627  32.517 228.502  1.00 20.00     0.116 C 
HETATM   39  CN7 MIY  5181       0.469  33.939 226.973  1.00 20.00     0.116 C 
ENDBRANCH  20  37
TORSDOF 7
ENDMDL
MODEL 5
REMARK VINA RESULT:      -6.3      6.353      8.447
REMARK  7 active torsions:
REMARK  status: ('A' for Active; 'I' for Inactive)
REMARK    1  A    between atoms: C2_6  and  C21_2 
REMARK       I    between atoms: C21_2  and  N2_3 
REMARK    2  A    between atoms: C3_9  and  O2_10 
REMARK    3  A    between atoms: C4_12  and  N1_13 
REMARK    4  A    between atoms: C18_17  and  O7_18 
REMARK    5  A    between atoms: C17_20  and  O6_21 
REMARK    6  A    between atoms: C13_31  and  O4_32 
REMARK    7  A    between atoms: C10_36  and  N7_37 
ROOT
HETATM    1  C2  MIY  5181      -1.813  37.380 231.989  1.00 20.00     0.116 C 
HETATM    2  C1  MIY  5181      -0.822  37.769 233.019  1.00 20.00     0.209 C 
HETATM    3  O1  MIY  5181      -1.010  38.782 233.664  1.00 20.00    -0.288 OA
HETATM    4  C3  MIY  5181      -1.650  36.185 231.346  1.00 20.00     0.108 C 
HETATM    5  C4  MIY  5181      -0.585  35.109 231.729  1.00 20.00     0.049 C 
HETATM    6  C5  MIY  5181       0.231  35.421 233.030  1.00 20.00     0.088 C 
HETATM    7  C18 MIY  5181       0.465  36.929 233.221  1.00 20.00     0.180 C 
HETATM    8  C17 MIY  5181       1.290  37.092 234.515  1.00 20.00     0.097 C 
HETATM    9  C16 MIY  5181       1.450  36.181 235.505  1.00 20.00     0.030 C 
HETATM   10  C7  MIY  5181       0.836  34.809 235.455  1.00 20.00     0.030 C 
HETATM   11  C6  MIY  5181      -0.227  34.726 234.333  1.00 20.00     0.024 C 
HETATM   12  C15 MIY  5181       2.249  36.582 236.684  1.00 20.00     0.194 C 
HETATM   13  O5  MIY  5181       2.926  37.618 236.760  1.00 20.00    -0.287 OA
HETATM   14  C14 MIY  5181       2.159  35.771 237.920  1.00 20.00     0.056 A 
HETATM   15  C9  MIY  5181       1.172  34.796 238.029  1.00 20.00    -0.019 A 
HETATM   16  C8  MIY  5181       0.217  34.540 236.848  1.00 20.00     0.051 C 
HETATM   17  C13 MIY  5181       3.056  36.073 238.939  1.00 20.00     0.080 A 
HETATM   18  C12 MIY  5181       2.987  35.364 240.137  1.00 20.00     0.039 A 
HETATM   19  C11 MIY  5181       2.005  34.384 240.275  1.00 20.00     0.027 A 
HETATM   20  C10 MIY  5181       1.102  34.092 239.239  1.00 20.00     0.017 A 
ENDROOT
BRANCH   1  21
HETATM   21  C21 MIY  5181      -2.960  38.290 231.688  1.00 20.00     0.256 C 
HETATM   22  N2  MIY  5181      -3.798  38.514 232.725  1.00 20.00    -0.366 N 
ATOM     23  H22 MIY  5181      -3.675  38.087 233.644  1.00  0.00     0.159 HD
ATOM     24  H21 MIY  5181      -4.581  39.134 232.520  1.00  0.00     0.159 HD
HETATM   25  O8  MIY  5181      -3.111  38.809 230.571  1.00 20.00    -0.268 OA
ENDBRANCH   1  21
BRANCH   4  26
HETATM   26  O2  MIY  5181      -2.474  35.904 230.321  1.00 20.00    -0.358 OA
ATOM     27  H2  MIY  5181      -2.093  35.542 229.529  1.00  0.00     0.218 HD
ENDBRANCH   4  26
BRANCH   7  28
HETATM   28  O7  MIY  5181       1.377  37.364 232.202  1.00 20.00    -0.374 OA
ATOM     29  H7  MIY  5181       1.148  38.267 232.018  1.00  0.00     0.211 HD
ENDBRANCH   7  28
BRANCH   5  30
HETATM   30  N1  MIY  5181       0.234  34.574 230.516  1.00 20.00    -0.390 N 
HETATM   31  C19 MIY  5181      -0.198  33.315 229.854  1.00 20.00     0.149 C 
HETATM   32  C20 MIY  5181       0.627  35.557 229.451  1.00 20.00     0.149 C 
ENDBRANCH   5  30
BRANCH   8  33
HETATM   33  O6  MIY  5181       2.005  38.222 234.639  1.00 20.00    -0.361 OA
ATOM     34  H6  MIY  5181       2.903  38.179 234.332  1.00  0.00     0.217 HD
ENDBRANCH   8  33
BRANCH  17  35
HETATM   35  O4  MIY  5181       4.002  37.057 238.736  1.00 20.00    -0.360 OA
ATOM     36  H4  MIY  5181       4.128  37.762 239.360  1.00  0.00     0.217 HD
ENDBRANCH  17  35
BRANCH  20  37
HETATM   37  N7  MIY  5181       0.115  33.139 239.467  1.00 20.00    -0.291 NA
HETATM   38  C71 MIY  5181       0.698  31.853 239.904  1.00 20.00     0.116 C 
HETATM   39  CN7 MIY  5181      -0.606  33.681 240.625  1.00 20.00     0.116 C 
ENDBRANCH  20  37
TORSDOF 7
ENDMDL
MODEL 6
REMARK VINA RESULT:      -6.3      6.117      9.184
REMARK  7 active torsions:
REMARK  status: ('A' for Active; 'I' for Inactive)
REMARK    1  A    between atoms: C2_6  and  C21_2 
REMARK       I    between atoms: C21_2  and  N2_3 
REMARK    2  A    between atoms: C3_9  and  O2_10 
REMARK    3  A    between atoms: C4_12  and  N1_13 
REMARK    4  A    between atoms: C18_17  and  O7_18 
REMARK    5  A    between atoms: C17_20  and  O6_21 
REMARK    6  A    between atoms: C13_31  and  O4_32 
REMARK    7  A    between atoms: C10_36  and  N7_37 
ROOT
HETATM    1  C2  MIY  5181       2.108  37.403 238.229  1.00 20.00     0.116 C 
HETATM    2  C1  MIY  5181       0.695  37.481 237.790  1.00 20.00     0.209 C 
HETATM    3  O1  MIY  5181       0.075  38.509 237.981  1.00 20.00    -0.288 OA
HETATM    4  C3  MIY  5181       2.828  36.285 237.913  1.00 20.00     0.108 C 
HETATM    5  C4  MIY  5181       2.326  35.142 236.975  1.00 20.00     0.049 C 
HETATM    6  C5  MIY  5181       0.952  35.418 236.274  1.00 20.00     0.088 C 
HETATM    7  C18 MIY  5181       0.004  36.246 237.158  1.00 20.00     0.180 C 
HETATM    8  C17 MIY  5181      -1.306  36.425 236.362  1.00 20.00     0.097 C 
HETATM    9  C16 MIY  5181      -1.484  36.258 235.030  1.00 20.00     0.030 C 
HETATM   10  C7  MIY  5181      -0.377  35.826 234.108  1.00 20.00     0.030 C 
HETATM   11  C6  MIY  5181       0.996  35.932 234.816  1.00 20.00     0.024 C 
HETATM   12  C15 MIY  5181      -2.827  36.540 234.477  1.00 20.00     0.194 C 
HETATM   13  O5  MIY  5181      -3.843  36.746 235.158  1.00 20.00    -0.287 OA
HETATM   14  C14 MIY  5181      -2.979  36.713 233.014  1.00 20.00     0.056 A 
HETATM   15  C9  MIY  5181      -1.843  36.835 232.218  1.00 20.00    -0.019 A 
HETATM   16  C8  MIY  5181      -0.446  36.738 232.860  1.00 20.00     0.051 C 
HETATM   17  C13 MIY  5181      -4.276  36.796 232.519  1.00 20.00     0.080 A 
HETATM   18  C12 MIY  5181      -4.470  36.998 231.154  1.00 20.00     0.039 A 
HETATM   19  C11 MIY  5181      -3.350  37.125 230.333  1.00 20.00     0.027 A 
HETATM   20  C10 MIY  5181      -2.045  37.045 230.847  1.00 20.00     0.017 A 
ENDROOT
BRANCH   1  21
HETATM   21  C21 MIY  5181       2.708  38.541 238.990  1.00 20.00     0.256 C 
HETATM   22  N2  MIY  5181       2.280  38.662 240.268  1.00 20.00    -0.366 N 
ATOM     23  H22 MIY  5181       1.589  38.039 240.685  1.00  0.00     0.159 HD
ATOM     24  H21 MIY  5181       2.690  39.439 240.786  1.00  0.00     0.159 HD
HETATM   25  O8  MIY  5181       3.549  39.300 238.483  1.00 20.00    -0.268 OA
ENDBRANCH   1  21
BRANCH   4  26
HETATM   26  O2  MIY  5181       4.063  36.165 238.431  1.00 20.00    -0.358 OA
ATOM     27  H2  MIY  5181       4.438  36.921 238.867  1.00  0.00     0.218 HD
ENDBRANCH   4  26
BRANCH   7  28
HETATM   28  O7  MIY  5181      -0.400  35.420 238.260  1.00 20.00    -0.374 OA
ATOM     29  H7  MIY  5181      -0.288  34.524 237.965  1.00  0.00     0.211 HD
ENDBRANCH   7  28
BRANCH   5  30
HETATM   30  N1  MIY  5181       2.522  33.713 237.564  1.00 20.00    -0.390 N 
HETATM   31  C19 MIY  5181       2.256  33.487 239.010  1.00 20.00     0.149 C 
HETATM   32  C20 MIY  5181       1.956  32.555 236.793  1.00 20.00     0.149 C 
ENDBRANCH   5  30
BRANCH   8  33
HETATM   33  O6  MIY  5181      -2.415  36.685 237.073  1.00 20.00    -0.361 OA
ATOM     34  H6  MIY  5181      -2.917  37.442 236.794  1.00  0.00     0.217 HD
ENDBRANCH   8  33
BRANCH  17  35
HETATM   35  O4  MIY  5181      -5.339  36.662 233.388  1.00 20.00    -0.360 OA
ATOM     36  H4  MIY  5181      -6.222  36.908 233.135  1.00  0.00     0.217 HD
ENDBRANCH  17  35
BRANCH  20  37
HETATM   37  N7  MIY  5181      -0.976  37.235 229.978  1.00 20.00    -0.291 NA
HETATM   38  C71 MIY  5181      -1.238  36.623 228.659  1.00 20.00     0.116 C 
HETATM   39  CN7 MIY  5181      -0.977  38.688 229.767  1.00 20.00     0.116 C 
ENDBRANCH  20  37
TORSDOF 7
ENDMDL
MODEL 7
REMARK VINA RESULT:      -6.2      5.427      7.686
REMARK  7 active torsions:
REMARK  status: ('A' for Active; 'I' for Inactive)
REMARK    1  A    between atoms: C2_6  and  C21_2 
REMARK       I    between atoms: C21_2  and  N2_3 
REMARK    2  A    between atoms: C3_9  and  O2_10 
REMARK    3  A    between atoms: C4_12  and  N1_13 
REMARK    4  A    between atoms: C18_17  and  O7_18 
REMARK    5  A    between atoms: C17_20  and  O6_21 
REMARK    6  A    between atoms: C13_31  and  O4_32 
REMARK    7  A    between atoms: C10_36  and  N7_37 
ROOT
HETATM    1  C2  MIY  5181      -2.541  38.484 231.409  1.00 20.00     0.116 C 
HETATM    2  C1  MIY  5181      -1.674  37.295 231.577  1.00 20.00     0.209 C 
HETATM    3  O1  MIY  5181      -0.708  37.164 230.852  1.00 20.00    -0.288 OA
HETATM    4  C3  MIY  5181      -3.561  38.679 232.299  1.00 20.00     0.108 C 
HETATM    5  C4  MIY  5181      -3.786  37.830 233.590  1.00 20.00     0.049 C 
HETATM    6  C5  MIY  5181      -2.657  36.788 233.901  1.00 20.00     0.088 C 
HETATM    7  C18 MIY  5181      -2.035  36.207 232.620  1.00 20.00     0.180 C 
HETATM    8  C17 MIY  5181      -0.964  35.189 233.067  1.00 20.00     0.097 C 
HETATM    9  C16 MIY  5181      -0.386  35.091 234.288  1.00 20.00     0.030 C 
HETATM   10  C7  MIY  5181      -0.754  35.990 235.437  1.00 20.00     0.030 C 
HETATM   11  C6  MIY  5181      -1.589  37.195 234.942  1.00 20.00     0.024 C 
HETATM   12  C15 MIY  5181       0.664  34.064 234.470  1.00 20.00     0.194 C 
HETATM   13  O5  MIY  5181       0.931  33.174 233.650  1.00 20.00    -0.287 OA
HETATM   14  C14 MIY  5181       1.554  34.150 235.650  1.00 20.00     0.056 A 
HETATM   15  C9  MIY  5181       1.542  35.300 236.434  1.00 20.00    -0.019 A 
HETATM   16  C8  MIY  5181       0.571  36.447 236.094  1.00 20.00     0.051 C 
HETATM   17  C13 MIY  5181       2.403  33.073 235.881  1.00 20.00     0.080 A 
HETATM   18  C12 MIY  5181       3.287  33.123 236.956  1.00 20.00     0.039 A 
HETATM   19  C11 MIY  5181       3.298  34.265 237.757  1.00 20.00     0.027 A 
HETATM   20  C10 MIY  5181       2.439  35.348 237.510  1.00 20.00     0.017 A 
ENDROOT
BRANCH   1  21
HETATM   21  C21 MIY  5181      -2.278  39.437 230.287  1.00 20.00     0.256 C 
HETATM   22  N2  MIY  5181      -1.163  40.188 230.427  1.00 20.00    -0.366 N 
ATOM     23  H22 MIY  5181      -0.549  40.128 231.240  1.00  0.00     0.159 HD
ATOM     24  H21 MIY  5181      -0.983  40.838 229.662  1.00  0.00     0.159 HD
HETATM   25  O8  MIY  5181      -3.025  39.510 229.298  1.00 20.00    -0.268 OA
ENDBRANCH   1  21
BRANCH   4  26
HETATM   26  O2  MIY  5181      -4.423  39.682 232.058  1.00 20.00    -0.358 OA
ATOM     27  H2  MIY  5181      -4.866  39.697 231.218  1.00  0.00     0.218 HD
ENDBRANCH   4  26
BRANCH   7  28
HETATM   28  O7  MIY  5181      -3.022  35.377 231.990  1.00 20.00    -0.374 OA
ATOM     29  H7  MIY  5181      -3.058  35.660 231.085  1.00  0.00     0.211 HD
ENDBRANCH   7  28
BRANCH   5  30
HETATM   30  N1  MIY  5181      -5.251  37.329 233.766  1.00 20.00    -0.390 N 
HETATM   31  C19 MIY  5181      -5.495  35.881 233.998  1.00 20.00     0.149 C 
HETATM   32  C20 MIY  5181      -6.152  38.113 234.677  1.00 20.00     0.149 C 
ENDBRANCH   5  30
BRANCH   8  33
HETATM   33  O6  MIY  5181      -0.628  34.235 232.183  1.00 20.00    -0.361 OA
ATOM     34  H6  MIY  5181       0.190  33.783 232.353  1.00  0.00     0.217 HD
ENDBRANCH   8  33
BRANCH  17  35
HETATM   35  O4  MIY  5181       2.340  31.974 235.048  1.00 20.00    -0.360 OA
ATOM     36  H4  MIY  5181       1.567  31.423 235.010  1.00  0.00     0.217 HD
ENDBRANCH  17  35
BRANCH  20  37
HETATM   37  N7  MIY  5181       2.543  36.475 238.317  1.00 20.00    -0.291 NA
HETATM   38  C71 MIY  5181       2.851  36.111 239.716  1.00 20.00     0.116 C 
HETATM   39  CN7 MIY  5181       3.739  37.147 237.793  1.00 20.00     0.116 C 
ENDBRANCH  20  37
TORSDOF 7
ENDMDL
MODEL 8
REMARK VINA RESULT:      -6.1      2.358      7.949
REMARK  7 active torsions:
REMARK  status: ('A' for Active; 'I' for Inactive)
REMARK    1  A    between atoms: C2_6  and  C21_2 
REMARK       I    between atoms: C21_2  and  N2_3 
REMARK    2  A    between atoms: C3_9  and  O2_10 
REMARK    3  A    between atoms: C4_12  and  N1_13 
REMARK    4  A    between atoms: C18_17  and  O7_18 
REMARK    5  A    between atoms: C17_20  and  O6_21 
REMARK    6  A    between atoms: C13_31  and  O4_32 
REMARK    7  A    between atoms: C10_36  and  N7_37 
ROOT
HETATM    1  C2  MIY  5181      -1.983  36.613 234.059  1.00 20.00     0.116 C 
HETATM    2  C1  MIY  5181      -2.848  37.362 233.118  1.00 20.00     0.209 C 
HETATM    3  O1  MIY  5181      -3.712  38.089 233.565  1.00 20.00    -0.288 OA
HETATM    4  C3  MIY  5181      -0.945  35.883 233.551  1.00 20.00     0.108 C 
HETATM    5  C4  MIY  5181      -0.491  35.908 232.056  1.00 20.00     0.049 C 
HETATM    6  C5  MIY  5181      -1.228  36.959 231.159  1.00 20.00     0.088 C 
HETATM    7  C18 MIY  5181      -2.691  37.166 231.589  1.00 20.00     0.180 C 
HETATM    8  C17 MIY  5181      -3.298  38.200 230.617  1.00 20.00     0.097 C 
HETATM    9  C16 MIY  5181      -2.629  39.058 229.810  1.00 20.00     0.030 C 
HETATM   10  C7  MIY  5181      -1.128  39.096 229.730  1.00 20.00     0.030 C 
HETATM   11  C6  MIY  5181      -0.497  38.296 230.895  1.00 20.00     0.024 C 
HETATM   12  C15 MIY  5181      -3.429  40.003 229.000  1.00 20.00     0.194 C 
HETATM   13  O5  MIY  5181      -4.661  39.954 228.868  1.00 20.00    -0.287 OA
HETATM   14  C14 MIY  5181      -2.756  41.170 228.386  1.00 20.00     0.056 A 
HETATM   15  C9  MIY  5181      -1.452  41.484 228.761  1.00 20.00    -0.019 A 
HETATM   16  C8  MIY  5181      -0.711  40.586 229.771  1.00 20.00     0.051 C 
HETATM   17  C13 MIY  5181      -3.499  41.929 227.488  1.00 20.00     0.080 A 
HETATM   18  C12 MIY  5181      -2.923  43.059 226.914  1.00 20.00     0.039 A 
HETATM   19  C11 MIY  5181      -1.619  43.398 227.275  1.00 20.00     0.027 A 
HETATM   20  C10 MIY  5181      -0.880  42.626 228.186  1.00 20.00     0.017 A 
ENDROOT
BRANCH   1  21
HETATM   21  C21 MIY  5181      -2.258  36.680 235.527  1.00 20.00     0.256 C 
HETATM   22  N2  MIY  5181      -3.505  36.305 235.892  1.00 20.00    -0.366 N 
ATOM     23  H22 MIY  5181      -4.217  36.012 235.222  1.00  0.00     0.159 HD
ATOM     24  H21 MIY  5181      -3.692  36.351 236.893  1.00  0.00     0.159 HD
HETATM   25  O8  MIY  5181      -1.393  37.038 236.342  1.00 20.00    -0.268 OA
ENDBRANCH   1  21
BRANCH   4  26
HETATM   26  O2  MIY  5181      -0.252  35.101 234.397  1.00 20.00    -0.358 OA
ATOM     27  H2  MIY  5181      -0.483  35.127 235.318  1.00  0.00     0.218 HD
ENDBRANCH   4  26
BRANCH   7  28
HETATM   28  O7  MIY  5181      -3.413  35.967 231.273  1.00 20.00    -0.374 OA
ATOM     29  H7  MIY  5181      -2.770  35.363 230.921  1.00  0.00     0.211 HD
ENDBRANCH   7  28
BRANCH   5  30
HETATM   30  N1  MIY  5181      -0.294  34.492 231.436  1.00 20.00    -0.390 N 
HETATM   31  C19 MIY  5181      -1.187  33.385 231.869  1.00 20.00     0.149 C 
HETATM   32  C20 MIY  5181      -0.115  34.399 229.948  1.00 20.00     0.149 C 
ENDBRANCH   5  30
BRANCH   8  33
HETATM   33  O6  MIY  5181      -4.634  38.193 230.484  1.00 20.00    -0.361 OA
ATOM     34  H6  MIY  5181      -4.978  37.642 229.790  1.00  0.00     0.217 HD
ENDBRANCH   8  33
BRANCH  17  35
HETATM   35  O4  MIY  5181      -4.785  41.537 227.178  1.00 20.00    -0.360 OA
ATOM     36  H4  MIY  5181      -5.169  41.718 226.328  1.00  0.00     0.217 HD
ENDBRANCH  17  35
BRANCH  20  37
HETATM   37  N7  MIY  5181       0.395  43.054 228.539  1.00 20.00    -0.291 NA
HETATM   38  C71 MIY  5181       1.392  42.681 227.514  1.00 20.00     0.116 C 
HETATM   39  CN7 MIY  5181       0.277  44.517 228.488  1.00 20.00     0.116 C 
ENDBRANCH  20  37
TORSDOF 7
ENDMDL
MODEL 9
REMARK VINA RESULT:      -6.0      6.016      8.711
REMARK  7 active torsions:
REMARK  status: ('A' for Active; 'I' for Inactive)
REMARK    1  A    between atoms: C2_6  and  C21_2 
REMARK       I    between atoms: C21_2  and  N2_3 
REMARK    2  A    between atoms: C3_9  and  O2_10 
REMARK    3  A    between atoms: C4_12  and  N1_13 
REMARK    4  A    between atoms: C18_17  and  O7_18 
REMARK    5  A    between atoms: C17_20  and  O6_21 
REMARK    6  A    between atoms: C13_31  and  O4_32 
REMARK    7  A    between atoms: C10_36  and  N7_37 
ROOT
HETATM    1  C2  MIY  5181      -3.030  35.446 232.242  1.00 20.00     0.116 C 
HETATM    2  C1  MIY  5181      -2.234  36.448 232.988  1.00 20.00     0.209 C 
HETATM    3  O1  MIY  5181      -2.814  37.283 233.653  1.00 20.00    -0.288 OA
HETATM    4  C3  MIY  5181      -2.369  34.445 231.586  1.00 20.00     0.108 C 
HETATM    5  C4  MIY  5181      -0.835  34.174 231.696  1.00 20.00     0.049 C 
HETATM    6  C5  MIY  5181      -0.082  35.057 232.749  1.00 20.00     0.088 C 
HETATM    7  C18 MIY  5181      -0.689  36.466 232.866  1.00 20.00     0.180 C 
HETATM    8  C17 MIY  5181       0.153  37.228 233.910  1.00 20.00     0.097 C 
HETATM    9  C16 MIY  5181       0.990  36.698 234.834  1.00 20.00     0.030 C 
HETATM   10  C7  MIY  5181       1.244  35.219 234.948  1.00 20.00     0.030 C 
HETATM   11  C6  MIY  5181       0.201  34.421 234.130  1.00 20.00     0.024 C 
HETATM   12  C15 MIY  5181       1.655  37.629 235.773  1.00 20.00     0.194 C 
HETATM   13  O5  MIY  5181       1.643  38.864 235.670  1.00 20.00    -0.287 OA
HETATM   14  C14 MIY  5181       2.286  37.084 236.996  1.00 20.00     0.056 A 
HETATM   15  C9  MIY  5181       2.051  35.759 237.356  1.00 20.00    -0.019 A 
HETATM   16  C8  MIY  5181       1.180  34.866 236.453  1.00 20.00     0.051 C 
HETATM   17  C13 MIY  5181       3.052  37.961 237.756  1.00 20.00     0.080 A 
HETATM   18  C12 MIY  5181       3.635  37.506 238.937  1.00 20.00     0.039 A 
HETATM   19  C11 MIY  5181       3.413  36.184 239.323  1.00 20.00     0.027 A 
HETATM   20  C10 MIY  5181       2.633  35.310 238.549  1.00 20.00     0.017 A 
ENDROOT
BRANCH   1  21
HETATM   21  C21 MIY  5181      -4.522  35.546 232.233  1.00 20.00     0.256 C 
HETATM   22  N2  MIY  5181      -5.015  36.657 231.639  1.00 20.00    -0.366 N 
ATOM     23  H22 MIY  5181      -4.422  37.384 231.238  1.00  0.00     0.159 HD
ATOM     24  H21 MIY  5181      -6.032  36.725 231.633  1.00  0.00     0.159 HD
HETATM   25  O8  MIY  5181      -5.243  34.662 232.720  1.00 20.00    -0.268 OA
ENDBRANCH   1  21
BRANCH   4  26
HETATM   26  O2  MIY  5181      -3.089  33.623 230.802  1.00 20.00    -0.358 OA
ATOM     27  H2  MIY  5181      -3.540  32.896 231.215  1.00  0.00     0.218 HD
ENDBRANCH   4  26
BRANCH   7  28
HETATM   28  O7  MIY  5181      -0.403  37.169 231.648  1.00 20.00    -0.374 OA
ATOM     29  H7  MIY  5181      -0.145  38.044 231.910  1.00  0.00     0.211 HD
ENDBRANCH   7  28
BRANCH   5  30
HETATM   30  N1  MIY  5181      -0.128  33.992 230.320  1.00 20.00    -0.390 N 
HETATM   31  C19 MIY  5181      -0.016  32.627 229.742  1.00 20.00     0.149 C 
HETATM   32  C20 MIY  5181      -0.491  34.944 229.217  1.00 20.00     0.149 C 
ENDBRANCH   5  30
BRANCH   8  33
HETATM   33  O6  MIY  5181       0.129  38.569 233.844  1.00 20.00    -0.361 OA
ATOM     34  H6  MIY  5181       0.889  39.014 234.203  1.00  0.00     0.217 HD
ENDBRANCH   8  33
BRANCH  17  35
HETATM   35  O4  MIY  5181       3.229  39.257 237.316  1.00 20.00    -0.360 OA
ATOM     36  H4  MIY  5181       3.970  39.780 237.597  1.00  0.00     0.217 HD
ENDBRANCH  17  35
BRANCH  20  37
HETATM   37  N7  MIY  5181       2.412  34.021 239.022  1.00 20.00    -0.291 NA
HETATM   38  C71 MIY  5181       3.535  33.122 238.686  1.00 20.00     0.116 C 
HETATM   39  CN7 MIY  5181       2.444  34.196 240.480  1.00 20.00     0.116 C 
ENDBRANCH  20  37
TORSDOF 7
ENDMDL
