MODEL 1
REMARK VINA RESULT:      -6.7      0.000      0.000
REMARK  3 active torsions:
REMARK  status: ('A' for Active; 'I' for Inactive)
REMARK    1  A    between atoms: C3_4  and  C7_2 
REMARK    2  A    between atoms: C2_9  and  O3_10 
REMARK    3  A    between atoms: C8_11  and  O3_10 
ROOT
HETATM    1  C3  AIN  1536       1.615  44.816 228.811  1.00 20.00     0.074 A 
HETATM    2  C4  AIN  1536       2.874  44.523 229.321  1.00 20.00     0.021 A 
HETATM    3  C5  AIN  1536       3.476  43.304 229.037  1.00 20.00     0.001 A 
HETATM    4  C6  AIN  1536       2.835  42.360 228.241  1.00 20.00     0.003 A 
HETATM    5  C1  AIN  1536       1.571  42.606 227.705  1.00 20.00     0.038 A 
HETATM    6  C2  AIN  1536       0.916  43.804 227.974  1.00 20.00     0.096 A 
ENDROOT
BRANCH   6   7
HETATM    7  O3  AIN  1536      -0.311  44.095 227.418  1.00 20.00    -0.278 OA
BRANCH   7   8
HETATM    8  C8  AIN  1536      -1.404  43.245 226.961  1.00 20.00     0.260 C 
HETATM    9  C9  AIN  1536      -2.222  42.385 227.874  1.00 20.00     0.126 C 
HETATM   10  O4  AIN  1536      -1.681  43.269 225.777  1.00 20.00    -0.265 OA
ENDBRANCH   7   8
ENDBRANCH   6   7
BRANCH   1  11
HETATM   11  C7  AIN  1536       0.983  46.141 229.132  1.00 20.00     0.212 C 
HETATM   12  O1  AIN  1536       1.197  47.109 228.418  1.00 20.00    -0.644 OA
HETATM   13  O2  AIN  1536       0.245  46.264 230.095  1.00 20.00    -0.644 OA
ENDBRANCH   1  11
TORSDOF 3
ENDMDL
MODEL 2
REMARK VINA RESULT:      -6.4      2.101      4.184
REMARK  3 active torsions:
REMARK  status: ('A' for Active; 'I' for Inactive)
REMARK    1  A    between atoms: C3_4  and  C7_2 
REMARK    2  A    between atoms: C2_9  and  O3_10 
REMARK    3  A    between atoms: C8_11  and  O3_10 
ROOT
HETATM    1  C3  AIN  1536       0.910  44.865 228.475  1.00 20.00     0.074 A 
HETATM    2  C4  AIN  1536      -0.193  44.303 227.845  1.00 20.00     0.021 A 
HETATM    3  C5  AIN  1536      -0.149  42.988 227.403  1.00 20.00     0.001 A 
HETATM    4  C6  AIN  1536       0.993  42.213 227.581  1.00 20.00     0.003 A 
HETATM    5  C1  AIN  1536       2.126  42.731 228.208  1.00 20.00     0.038 A 
HETATM    6  C2  AIN  1536       2.141  44.048 228.654  1.00 20.00     0.096 A 
ENDROOT
BRANCH   6   7
HETATM    7  O3  AIN  1536       3.228  44.572 229.320  1.00 20.00    -0.278 OA
BRANCH   7   8
HETATM    8  C8  AIN  1536       3.940  44.144 230.518  1.00 20.00     0.260 C 
HETATM    9  C9  AIN  1536       5.292  43.501 230.492  1.00 20.00     0.126 C 
HETATM   10  O4  AIN  1536       3.413  44.355 231.593  1.00 20.00    -0.265 OA
ENDBRANCH   7   8
ENDBRANCH   6   7
BRANCH   1  11
HETATM   11  C7  AIN  1536       0.840  46.292 228.945  1.00 20.00     0.212 C 
HETATM   12  O1  AIN  1536       0.312  46.557 230.014  1.00 20.00    -0.644 OA
HETATM   13  O2  AIN  1536       1.315  47.194 228.277  1.00 20.00    -0.644 OA
ENDBRANCH   1  11
TORSDOF 3
ENDMDL
MODEL 3
REMARK VINA RESULT:      -5.2      1.955      4.363
REMARK  3 active torsions:
REMARK  status: ('A' for Active; 'I' for Inactive)
REMARK    1  A    between atoms: C3_4  and  C7_2 
REMARK    2  A    between atoms: C2_9  and  O3_10 
REMARK    3  A    between atoms: C8_11  and  O3_10 
ROOT
HETATM    1  C3  AIN  1536      -0.272  43.403 227.720  1.00 20.00     0.074 A 
HETATM    2  C4  AIN  1536      -1.285  43.310 226.773  1.00 20.00     0.021 A 
HETATM    3  C5  AIN  1536      -2.456  42.624 227.067  1.00 20.00     0.001 A 
HETATM    4  C6  AIN  1536      -2.636  42.021 228.308  1.00 20.00     0.003 A 
HETATM    5  C1  AIN  1536      -1.651  42.086 229.292  1.00 20.00     0.038 A 
HETATM    6  C2  AIN  1536      -0.451  42.745 229.043  1.00 20.00     0.096 A 
ENDROOT
BRANCH   6   7
HETATM    7  O3  AIN  1536       0.520  42.867 230.013  1.00 20.00    -0.278 OA
BRANCH   7   8
HETATM    8  C8  AIN  1536       1.269  44.016 230.507  1.00 20.00     0.260 C 
HETATM    9  C9  AIN  1536       2.762  44.051 230.606  1.00 20.00     0.126 C 
HETATM   10  O4  AIN  1536       0.638  45.007 230.823  1.00 20.00    -0.265 OA
ENDBRANCH   7   8
ENDBRANCH   6   7
BRANCH   1  11
HETATM   11  C7  AIN  1536       0.987  44.150 227.379  1.00 20.00     0.212 C 
HETATM   12  O1  AIN  1536       0.976  45.369 227.319  1.00 20.00    -0.644 OA
HETATM   13  O2  AIN  1536       2.030  43.553 227.170  1.00 20.00    -0.644 OA
ENDBRANCH   1  11
TORSDOF 3
ENDMDL
MODEL 4
REMARK VINA RESULT:      -5.2      1.514      4.825
REMARK  3 active torsions:
REMARK  status: ('A' for Active; 'I' for Inactive)
REMARK    1  A    between atoms: C3_4  and  C7_2 
REMARK    2  A    between atoms: C2_9  and  O3_10 
REMARK    3  A    between atoms: C8_11  and  O3_10 
ROOT
HETATM    1  C3  AIN  1536      -2.166  42.519 227.611  1.00 20.00     0.074 A 
HETATM    2  C4  AIN  1536      -2.911  41.496 228.184  1.00 20.00     0.021 A 
HETATM    3  C5  AIN  1536      -2.507  40.925 229.384  1.00 20.00     0.001 A 
HETATM    4  C6  AIN  1536      -1.356  41.364 230.030  1.00 20.00     0.003 A 
HETATM    5  C1  AIN  1536      -0.574  42.388 229.496  1.00 20.00     0.038 A 
HETATM    6  C2  AIN  1536      -0.924  42.982 228.288  1.00 20.00     0.096 A 
ENDROOT
BRANCH   6   7
HETATM    7  O3  AIN  1536      -0.199  44.028 227.761  1.00 20.00    -0.278 OA
BRANCH   7   8
HETATM    8  C8  AIN  1536       0.708  44.994 228.370  1.00 20.00     0.260 C 
HETATM    9  C9  AIN  1536       2.129  44.684 228.727  1.00 20.00     0.126 C 
HETATM   10  O4  AIN  1536       0.288  46.118 228.562  1.00 20.00    -0.265 OA
ENDBRANCH   7   8
ENDBRANCH   6   7
BRANCH   1  11
HETATM   11  C7  AIN  1536      -2.622  43.121 226.312  1.00 20.00     0.212 C 
HETATM   12  O1  AIN  1536      -3.623  43.821 226.281  1.00 20.00    -0.644 OA
HETATM   13  O2  AIN  1536      -2.000  42.929 225.281  1.00 20.00    -0.644 OA
ENDBRANCH   1  11
TORSDOF 3
ENDMDL
MODEL 5
REMARK VINA RESULT:      -5.1      1.990      3.453
REMARK  3 active torsions:
REMARK  status: ('A' for Active; 'I' for Inactive)
REMARK    1  A    between atoms: C3_4  and  C7_2 
REMARK    2  A    between atoms: C2_9  and  O3_10 
REMARK    3  A    between atoms: C8_11  and  O3_10 
ROOT
HETATM    1  C3  AIN  1536       3.052  43.078 229.010  1.00 20.00     0.074 A 
HETATM    2  C4  AIN  1536       4.397  42.978 229.346  1.00 20.00     0.021 A 
HETATM    3  C5  AIN  1536       4.871  43.564 230.512  1.00 20.00     0.001 A 
HETATM    4  C6  AIN  1536       4.014  44.258 231.361  1.00 20.00     0.003 A 
HETATM    5  C1  AIN  1536       2.656  44.386 231.069  1.00 20.00     0.038 A 
HETATM    6  C2  AIN  1536       2.133  43.833 229.904  1.00 20.00     0.096 A 
ENDROOT
BRANCH   6   7
HETATM    7  O3  AIN  1536       0.788  43.901 229.614  1.00 20.00    -0.278 OA
BRANCH   7   8
HETATM    8  C8  AIN  1536       0.055  44.509 228.510  1.00 20.00     0.260 C 
HETATM    9  C9  AIN  1536      -0.791  43.732 227.551  1.00 20.00     0.126 C 
HETATM   10  O4  AIN  1536       0.114  45.718 228.392  1.00 20.00    -0.265 OA
ENDBRANCH   7   8
ENDBRANCH   6   7
BRANCH   1  11
HETATM   11  C7  AIN  1536       2.562  42.436 227.742  1.00 20.00     0.212 C 
HETATM   12  O1  AIN  1536       2.713  43.005 226.672  1.00 20.00    -0.644 OA
HETATM   13  O2  AIN  1536       2.021  41.344 227.764  1.00 20.00    -0.644 OA
ENDBRANCH   1  11
TORSDOF 3
ENDMDL
MODEL 6
REMARK VINA RESULT:      -5.0      2.166      3.525
REMARK  3 active torsions:
REMARK  status: ('A' for Active; 'I' for Inactive)
REMARK    1  A    between atoms: C3_4  and  C7_2 
REMARK    2  A    between atoms: C2_9  and  O3_10 
REMARK    3  A    between atoms: C8_11  and  O3_10 
ROOT
HETATM    1  C3  AIN  1536       1.917  42.747 228.859  1.00 20.00     0.074 A 
HETATM    2  C4  AIN  1536       3.303  42.834 228.894  1.00 20.00     0.021 A 
HETATM    3  C5  AIN  1536       3.930  43.630 229.844  1.00 20.00     0.001 A 
HETATM    4  C6  AIN  1536       3.185  44.349 230.774  1.00 20.00     0.003 A 
HETATM    5  C1  AIN  1536       1.792  44.295 230.781  1.00 20.00     0.038 A 
HETATM    6  C2  AIN  1536       1.114  43.528 229.839  1.00 20.00     0.096 A 
ENDROOT
BRANCH   6   7
HETATM    7  O3  AIN  1536      -0.259  43.416 229.853  1.00 20.00    -0.278 OA
BRANCH   7   8
HETATM    8  C8  AIN  1536      -1.146  42.260 229.820  1.00 20.00     0.260 C 
HETATM    9  C9  AIN  1536      -2.287  42.118 228.860  1.00 20.00     0.126 C 
HETATM   10  O4  AIN  1536      -0.919  41.352 230.596  1.00 20.00    -0.265 OA
ENDBRANCH   7   8
ENDBRANCH   6   7
BRANCH   1  11
HETATM   11  C7  AIN  1536       1.261  41.880 227.821  1.00 20.00     0.212 C 
HETATM   12  O1  AIN  1536       0.609  42.391 226.923  1.00 20.00    -0.644 OA
HETATM   13  O2  AIN  1536       1.378  40.667 227.854  1.00 20.00    -0.644 OA
ENDBRANCH   1  11
TORSDOF 3
ENDMDL
MODEL 7
REMARK VINA RESULT:      -5.0     11.805     12.764
REMARK  3 active torsions:
REMARK  status: ('A' for Active; 'I' for Inactive)
REMARK    1  A    between atoms: C3_4  and  C7_2 
REMARK    2  A    between atoms: C2_9  and  O3_10 
REMARK    3  A    between atoms: C8_11  and  O3_10 
ROOT
HETATM    1  C3  AIN  1536       3.035  37.965 238.539  1.00 20.00     0.074 A 
HETATM    2  C4  AIN  1536       2.274  39.120 238.665  1.00 20.00     0.021 A 
HETATM    3  C5  AIN  1536       1.467  39.543 237.617  1.00 20.00     0.001 A 
HETATM    4  C6  AIN  1536       1.405  38.821 236.430  1.00 20.00     0.003 A 
HETATM    5  C1  AIN  1536       2.149  37.654 236.253  1.00 20.00     0.038 A 
HETATM    6  C2  AIN  1536       2.988  37.197 237.264  1.00 20.00     0.096 A 
ENDROOT
BRANCH   6   7
HETATM    7  O3  AIN  1536       3.697  36.023 237.138  1.00 20.00    -0.278 OA
BRANCH   7   8
HETATM    8  C8  AIN  1536       3.324  34.629 237.345  1.00 20.00     0.260 C 
HETATM    9  C9  AIN  1536       2.574  33.814 236.338  1.00 20.00     0.126 C 
HETATM   10  O4  AIN  1536       3.676  34.098 238.381  1.00 20.00    -0.265 OA
ENDBRANCH   7   8
ENDBRANCH   6   7
BRANCH   1  11
HETATM   11  C7  AIN  1536       3.903  37.527 239.686  1.00 20.00     0.212 C 
HETATM   12  O1  AIN  1536       4.970  38.086 239.892  1.00 20.00    -0.644 OA
HETATM   13  O2  AIN  1536       3.552  36.624 240.426  1.00 20.00    -0.644 OA
ENDBRANCH   1  11
TORSDOF 3
ENDMDL
MODEL 8
REMARK VINA RESULT:      -4.9     11.259     12.055
REMARK  3 active torsions:
REMARK  status: ('A' for Active; 'I' for Inactive)
REMARK    1  A    between atoms: C3_4  and  C7_2 
REMARK    2  A    between atoms: C2_9  and  O3_10 
REMARK    3  A    between atoms: C8_11  and  O3_10 
ROOT
HETATM    1  C3  AIN  1536       2.372  38.634 238.231  1.00 20.00     0.074 A 
HETATM    2  C4  AIN  1536       3.496  39.270 238.743  1.00 20.00     0.021 A 
HETATM    3  C5  AIN  1536       4.234  38.674 239.758  1.00 20.00     0.001 A 
HETATM    4  C6  AIN  1536       3.864  37.437 240.276  1.00 20.00     0.003 A 
HETATM    5  C1  AIN  1536       2.745  36.758 239.795  1.00 20.00     0.038 A 
HETATM    6  C2  AIN  1536       1.960  37.318 238.793  1.00 20.00     0.096 A 
ENDROOT
BRANCH   6   7
HETATM    7  O3  AIN  1536       0.878  36.649 238.264  1.00 20.00    -0.278 OA
BRANCH   7   8
HETATM    8  C8  AIN  1536       0.756  35.703 237.162  1.00 20.00     0.260 C 
HETATM    9  C9  AIN  1536       1.875  35.379 236.222  1.00 20.00     0.126 C 
HETATM   10  O4  AIN  1536      -0.306  35.127 237.028  1.00 20.00    -0.265 OA
ENDBRANCH   7   8
ENDBRANCH   6   7
BRANCH   1  11
HETATM   11  C7  AIN  1536       1.588  39.298 237.134  1.00 20.00     0.212 C 
HETATM   12  O1  AIN  1536       1.817  39.022 235.966  1.00 20.00    -0.644 OA
HETATM   13  O2  AIN  1536       0.713  40.107 237.393  1.00 20.00    -0.644 OA
ENDBRANCH   1  11
TORSDOF 3
ENDMDL
MODEL 9
REMARK VINA RESULT:      -4.8     11.562     12.557
REMARK  3 active torsions:
REMARK  status: ('A' for Active; 'I' for Inactive)
REMARK    1  A    between atoms: C3_4  and  C7_2 
REMARK    2  A    between atoms: C2_9  and  O3_10 
REMARK    3  A    between atoms: C8_11  and  O3_10 
ROOT
HETATM    1  C3  AIN  1536       3.156  36.548 238.723  1.00 20.00     0.074 A 
HETATM    2  C4  AIN  1536       3.334  36.821 240.073  1.00 20.00     0.021 A 
HETATM    3  C5  AIN  1536       3.636  38.111 240.490  1.00 20.00     0.001 A 
HETATM    4  C6  AIN  1536       3.764  39.146 239.570  1.00 20.00     0.003 A 
HETATM    5  C1  AIN  1536       3.594  38.924 238.204  1.00 20.00     0.038 A 
HETATM    6  C2  AIN  1536       3.308  37.647 237.731  1.00 20.00     0.096 A 
ENDROOT
BRANCH   6   7
HETATM    7  O3  AIN  1536       3.086  37.406 236.393  1.00 20.00    -0.278 OA
BRANCH   7   8
HETATM    8  C8  AIN  1536       1.937  37.657 235.531  1.00 20.00     0.260 C 
HETATM    9  C9  AIN  1536       1.108  36.571 234.920  1.00 20.00     0.126 C 
HETATM   10  O4  AIN  1536       1.624  38.815 235.332  1.00 20.00    -0.265 OA
ENDBRANCH   7   8
ENDBRANCH   6   7
BRANCH   1  11
HETATM   11  C7  AIN  1536       2.830  35.144 238.295  1.00 20.00     0.212 C 
HETATM   12  O1  AIN  1536       1.687  34.851 237.982  1.00 20.00    -0.644 OA
HETATM   13  O2  AIN  1536       3.698  34.289 238.244  1.00 20.00    -0.644 OA
ENDBRANCH   1  11
TORSDOF 3
ENDMDL
