MODEL 1
REMARK VINA RESULT:      -5.5      0.000      0.000
REMARK  8 active torsions:
REMARK  status: ('A' for Active; 'I' for Inactive)
REMARK    1  A    between atoms: C3_6  and  N2_13 
REMARK    2  A    between atoms: C10_15  and  N2_13 
REMARK    3  A    between atoms: C10_15  and  C11_16 
REMARK    4  A    between atoms: C11_16  and  C12_17 
REMARK    5  A    between atoms: C12_17  and  C13_18 
REMARK    6  A    between atoms: C13_18  and  N3_19 
REMARK    7  A    between atoms: C14_20  and  N3_19 
REMARK    8  A    between atoms: C16_22  and  N3_19 
ROOT
HETATM    1 CL   CLQ  2534       3.364  32.233 239.097  1.00 20.00    -0.084 Cl
HETATM    2  N1  CLQ  2534       2.772  37.248 240.094  1.00 20.00    -0.365 N 
ATOM      3  H1  CLQ  2534       2.822  36.998 241.082  1.00  0.00     0.165 HD
HETATM    4  C1  CLQ  2534       2.595  38.541 239.753  1.00 20.00     0.090 A 
HETATM    5  C2  CLQ  2534       2.509  38.939 238.425  1.00 20.00     0.047 A 
HETATM    6  C3  CLQ  2534       2.635  37.976 237.332  1.00 20.00     0.042 A 
HETATM    7  C4  CLQ  2534       2.840  36.558 237.693  1.00 20.00     0.017 A 
HETATM    8  C5  CLQ  2534       2.971  35.453 236.743  1.00 20.00     0.018 A 
HETATM    9  C6  CLQ  2534       3.144  34.132 237.174  1.00 20.00     0.025 A 
HETATM   10  C7  CLQ  2534       3.184  33.861 238.581  1.00 20.00     0.036 A 
HETATM   11  C8  CLQ  2534       3.063  34.878 239.541  1.00 20.00     0.054 A 
HETATM   12  C9  CLQ  2534       2.890  36.225 239.120  1.00 20.00     0.046 A 
ENDROOT
BRANCH   6  13
HETATM   13  N2  CLQ  2534       2.557  38.339 236.014  1.00 20.00    -0.385 N 
ATOM     14  H2  CLQ  2534       3.438  38.590 235.565  1.00  0.00     0.160 HD
BRANCH  13  15
HETATM   15  C10 CLQ  2534       1.330  38.411 235.153  1.00 20.00     0.077 C 
HETATM   16  C18 CLQ  2534       0.085  38.129 235.982  1.00 20.00     0.032 C 
BRANCH  15  17
HETATM   17  C11 CLQ  2534       1.486  37.462 233.955  1.00 20.00     0.026 C 
BRANCH  17  18
HETATM   18  C12 CLQ  2534       0.679  36.178 233.993  1.00 20.00     0.032 C 
BRANCH  18  19
HETATM   19  C13 CLQ  2534       0.100  35.898 232.616  1.00 20.00     0.272 C 
BRANCH  19  20
HETATM   20  N3  CLQ  2534      -0.316  37.136 231.871  1.00 20.00     0.087 N 
BRANCH  20  21
HETATM   21  C14 CLQ  2534       0.028  37.069 230.367  1.00 20.00     0.268 C 
HETATM   22  C15 CLQ  2534       0.816  35.864 229.866  1.00 20.00     0.037 C 
ENDBRANCH  20  21
BRANCH  20  23
HETATM   23  C16 CLQ  2534      -1.694  37.614 232.238  1.00 20.00     0.268 C 
HETATM   24  C17 CLQ  2534      -1.763  39.015 232.751  1.00 20.00     0.037 C 
ENDBRANCH  20  23
ENDBRANCH  19  20
ENDBRANCH  18  19
ENDBRANCH  17  18
ENDBRANCH  15  17
ENDBRANCH  13  15
ENDBRANCH   6  13
TORSDOF 8
ENDMDL
MODEL 2
REMARK VINA RESULT:      -5.3      1.086      2.055
REMARK  8 active torsions:
REMARK  status: ('A' for Active; 'I' for Inactive)
REMARK    1  A    between atoms: C3_6  and  N2_13 
REMARK    2  A    between atoms: C10_15  and  N2_13 
REMARK    3  A    between atoms: C10_15  and  C11_16 
REMARK    4  A    between atoms: C11_16  and  C12_17 
REMARK    5  A    between atoms: C12_17  and  C13_18 
REMARK    6  A    between atoms: C13_18  and  N3_19 
REMARK    7  A    between atoms: C14_20  and  N3_19 
REMARK    8  A    between atoms: C16_22  and  N3_19 
ROOT
HETATM    1 CL   CLQ  2534       3.482  33.128 239.561  1.00 20.00    -0.084 Cl
HETATM    2  N1  CLQ  2534       2.109  38.087 239.413  1.00 20.00    -0.365 N 
ATOM      3  H1  CLQ  2534       2.128  38.062 240.433  1.00  0.00     0.165 HD
HETATM    4  C1  CLQ  2534       1.771  39.235 238.791  1.00 20.00     0.090 A 
HETATM    5  C2  CLQ  2534       1.718  39.325 237.406  1.00 20.00     0.047 A 
HETATM    6  C3  CLQ  2534       2.055  38.184 236.555  1.00 20.00     0.042 A 
HETATM    7  C4  CLQ  2534       2.437  36.923 237.226  1.00 20.00     0.017 A 
HETATM    8  C5  CLQ  2534       2.790  35.677 236.546  1.00 20.00     0.018 A 
HETATM    9  C6  CLQ  2534       3.122  34.520 237.262  1.00 20.00     0.025 A 
HETATM   10  C7  CLQ  2534       3.106  34.562 238.695  1.00 20.00     0.036 A 
HETATM   11  C8  CLQ  2534       2.775  35.728 239.403  1.00 20.00     0.054 A 
HETATM   12  C9  CLQ  2534       2.438  36.912 238.692  1.00 20.00     0.046 A 
ENDROOT
BRANCH   6  13
HETATM   13  N2  CLQ  2534       2.015  38.244 235.189  1.00 20.00    -0.385 N 
ATOM     14  H2  CLQ  2534       2.889  38.490 234.724  1.00  0.00     0.160 HD
BRANCH  13  15
HETATM   15  C10 CLQ  2534       0.837  37.990 234.293  1.00 20.00     0.077 C 
HETATM   16  C18 CLQ  2534      -0.453  38.003 235.100  1.00 20.00     0.032 C 
BRANCH  15  17
HETATM   17  C11 CLQ  2534       1.053  36.679 233.520  1.00 20.00     0.026 C 
BRANCH  17  18
HETATM   18  C12 CLQ  2534       0.852  36.733 232.017  1.00 20.00     0.032 C 
BRANCH  18  19
HETATM   19  C13 CLQ  2534      -0.612  36.486 231.688  1.00 20.00     0.272 C 
BRANCH  19  20
HETATM   20  N3  CLQ  2534      -1.223  37.543 230.812  1.00 20.00     0.087 N 
BRANCH  20  21
HETATM   21  C14 CLQ  2534      -1.631  38.807 231.601  1.00 20.00     0.268 C 
HETATM   22  C15 CLQ  2534      -3.016  38.835 232.239  1.00 20.00     0.037 C 
ENDBRANCH  20  21
BRANCH  20  23
HETATM   23  C16 CLQ  2534      -0.475  37.752 229.524  1.00 20.00     0.268 C 
HETATM   24  C17 CLQ  2534      -0.466  36.579 228.600  1.00 20.00     0.037 C 
ENDBRANCH  20  23
ENDBRANCH  19  20
ENDBRANCH  18  19
ENDBRANCH  17  18
ENDBRANCH  15  17
ENDBRANCH  13  15
ENDBRANCH   6  13
TORSDOF 8
ENDMDL
MODEL 3
REMARK VINA RESULT:      -5.2      2.645      4.068
REMARK  8 active torsions:
REMARK  status: ('A' for Active; 'I' for Inactive)
REMARK    1  A    between atoms: C3_6  and  N2_13 
REMARK    2  A    between atoms: C10_15  and  N2_13 
REMARK    3  A    between atoms: C10_15  and  C11_16 
REMARK    4  A    between atoms: C11_16  and  C12_17 
REMARK    5  A    between atoms: C12_17  and  C13_18 
REMARK    6  A    between atoms: C13_18  and  N3_19 
REMARK    7  A    between atoms: C14_20  and  N3_19 
REMARK    8  A    between atoms: C16_22  and  N3_19 
ROOT
HETATM    1 CL   CLQ  2534       3.773  39.324 238.541  1.00 20.00    -0.084 Cl
HETATM    2  N1  CLQ  2534       0.985  35.350 240.250  1.00 20.00    -0.365 N 
ATOM      3  H1  CLQ  2534       0.673  35.966 241.001  1.00  0.00     0.165 HD
HETATM    4  C1  CLQ  2534       0.534  34.079 240.216  1.00 20.00     0.090 A 
HETATM    5  C2  CLQ  2534       0.931  33.191 239.224  1.00 20.00     0.047 A 
HETATM    6  C3  CLQ  2534       1.836  33.604 238.151  1.00 20.00     0.042 A 
HETATM    7  C4  CLQ  2534       2.328  34.997 238.172  1.00 20.00     0.017 A 
HETATM    8  C5  CLQ  2534       3.247  35.585 237.198  1.00 20.00     0.018 A 
HETATM    9  C6  CLQ  2534       3.679  36.913 237.305  1.00 20.00     0.025 A 
HETATM   10  C7  CLQ  2534       3.211  37.708 238.402  1.00 20.00     0.036 A 
HETATM   11  C8  CLQ  2534       2.328  37.200 239.369  1.00 20.00     0.054 A 
HETATM   12  C9  CLQ  2534       1.879  35.855 239.273  1.00 20.00     0.046 A 
ENDROOT
BRANCH   6  13
HETATM   13  N2  CLQ  2534       2.242  32.753 237.158  1.00 20.00    -0.385 N 
ATOM     14  H2  CLQ  2534       3.188  32.383 237.243  1.00  0.00     0.160 HD
BRANCH  13  15
HETATM   15  C10 CLQ  2534       1.458  32.302 235.960  1.00 20.00     0.077 C 
HETATM   16  C18 CLQ  2534       2.399  31.931 234.823  1.00 20.00     0.032 C 
BRANCH  15  17
HETATM   17  C11 CLQ  2534       0.441  33.386 235.573  1.00 20.00     0.026 C 
BRANCH  17  18
HETATM   18  C12 CLQ  2534       0.883  34.394 234.529  1.00 20.00     0.032 C 
BRANCH  18  19
HETATM   19  C13 CLQ  2534       0.265  35.749 234.834  1.00 20.00     0.272 C 
BRANCH  19  20
HETATM   20  N3  CLQ  2534       0.909  36.889 234.094  1.00 20.00     0.087 N 
BRANCH  20  21
HETATM   21  C14 CLQ  2534       0.254  37.151 232.719  1.00 20.00     0.268 C 
HETATM   22  C15 CLQ  2534       0.929  36.569 231.482  1.00 20.00     0.037 C 
ENDBRANCH  20  21
BRANCH  20  23
HETATM   23  C16 CLQ  2534       1.178  38.085 234.964  1.00 20.00     0.268 C 
HETATM   24  C17 CLQ  2534       0.303  38.203 236.167  1.00 20.00     0.037 C 
ENDBRANCH  20  23
ENDBRANCH  19  20
ENDBRANCH  18  19
ENDBRANCH  17  18
ENDBRANCH  15  17
ENDBRANCH  13  15
ENDBRANCH   6  13
TORSDOF 8
ENDMDL
MODEL 4
REMARK VINA RESULT:      -5.2      2.960      7.801
REMARK  8 active torsions:
REMARK  status: ('A' for Active; 'I' for Inactive)
REMARK    1  A    between atoms: C3_6  and  N2_13 
REMARK    2  A    between atoms: C10_15  and  N2_13 
REMARK    3  A    between atoms: C10_15  and  C11_16 
REMARK    4  A    between atoms: C11_16  and  C12_17 
REMARK    5  A    between atoms: C12_17  and  C13_18 
REMARK    6  A    between atoms: C13_18  and  N3_19 
REMARK    7  A    between atoms: C14_20  and  N3_19 
REMARK    8  A    between atoms: C16_22  and  N3_19 
ROOT
HETATM    1 CL   CLQ  2534       0.392  35.258 228.329  1.00 20.00    -0.084 Cl
HETATM    2  N1  CLQ  2534      -3.068  37.897 231.078  1.00 20.00    -0.365 N 
ATOM      3  H1  CLQ  2534      -3.716  37.740 230.305  1.00  0.00     0.165 HD
HETATM    4  C1  CLQ  2534      -3.485  38.602 232.149  1.00 20.00     0.090 A 
HETATM    5  C2  CLQ  2534      -2.646  38.856 233.226  1.00 20.00     0.047 A 
HETATM    6  C3  CLQ  2534      -1.277  38.343 233.262  1.00 20.00     0.042 A 
HETATM    7  C4  CLQ  2534      -0.812  37.559 232.098  1.00 20.00     0.017 A 
HETATM    8  C5  CLQ  2534       0.523  36.981 231.945  1.00 20.00     0.018 A 
HETATM    9  C6  CLQ  2534       0.886  36.266 230.797  1.00 20.00     0.025 A 
HETATM   10  C7  CLQ  2534      -0.075  36.108 229.746  1.00 20.00     0.036 A 
HETATM   11  C8  CLQ  2534      -1.372  36.640 229.834  1.00 20.00     0.054 A 
HETATM   12  C9  CLQ  2534      -1.757  37.366 230.994  1.00 20.00     0.046 A 
ENDROOT
BRANCH   6  13
HETATM   13  N2  CLQ  2534      -0.428  38.573 234.310  1.00 20.00    -0.385 N 
ATOM     14  H2  CLQ  2534       0.039  39.480 234.320  1.00  0.00     0.160 HD
BRANCH  13  15
HETATM   15  C10 CLQ  2534      -0.101  37.648 235.447  1.00 20.00     0.077 C 
HETATM   16  C18 CLQ  2534      -1.276  36.723 235.730  1.00 20.00     0.032 C 
BRANCH  15  17
HETATM   17  C11 CLQ  2534       0.328  38.471 236.671  1.00 20.00     0.026 C 
BRANCH  17  18
HETATM   18  C12 CLQ  2534       1.726  39.061 236.640  1.00 20.00     0.032 C 
BRANCH  18  19
HETATM   19  C13 CLQ  2534       2.303  39.082 238.046  1.00 20.00     0.272 C 
BRANCH  19  20
HETATM   20  N3  CLQ  2534       3.404  38.081 238.264  1.00 20.00     0.087 N 
BRANCH  20  21
HETATM   21  C14 CLQ  2534       3.264  37.326 239.604  1.00 20.00     0.268 C 
HETATM   22  C15 CLQ  2534       4.201  37.712 240.744  1.00 20.00     0.037 C 
ENDBRANCH  20  21
BRANCH  20  23
HETATM   23  C16 CLQ  2534       3.709  37.260 237.043  1.00 20.00     0.268 C 
HETATM   24  C17 CLQ  2534       3.350  35.814 237.145  1.00 20.00     0.037 C 
ENDBRANCH  20  23
ENDBRANCH  19  20
ENDBRANCH  18  19
ENDBRANCH  17  18
ENDBRANCH  15  17
ENDBRANCH  13  15
ENDBRANCH   6  13
TORSDOF 8
ENDMDL
MODEL 5
REMARK VINA RESULT:      -5.2      2.807      6.002
REMARK  8 active torsions:
REMARK  status: ('A' for Active; 'I' for Inactive)
REMARK    1  A    between atoms: C3_6  and  N2_13 
REMARK    2  A    between atoms: C10_15  and  N2_13 
REMARK    3  A    between atoms: C10_15  and  C11_16 
REMARK    4  A    between atoms: C11_16  and  C12_17 
REMARK    5  A    between atoms: C12_17  and  C13_18 
REMARK    6  A    between atoms: C13_18  and  N3_19 
REMARK    7  A    between atoms: C14_20  and  N3_19 
REMARK    8  A    between atoms: C16_22  and  N3_19 
ROOT
HETATM    1 CL   CLQ  2534       1.017  36.651 231.536  1.00 20.00    -0.084 Cl
HETATM    2  N1  CLQ  2534      -1.708  35.850 235.829  1.00 20.00    -0.365 N 
ATOM      3  H1  CLQ  2534      -2.278  35.208 235.278  1.00  0.00     0.165 HD
HETATM    4  C1  CLQ  2534      -2.011  36.045 237.129  1.00 20.00     0.090 A 
HETATM    5  C2  CLQ  2534      -1.277  36.914 237.926  1.00 20.00     0.047 A 
HETATM    6  C3  CLQ  2534      -0.120  37.637 237.398  1.00 20.00     0.042 A 
HETATM    7  C4  CLQ  2534       0.229  37.422 235.978  1.00 20.00     0.017 A 
HETATM    8  C5  CLQ  2534       1.336  38.067 235.272  1.00 20.00     0.018 A 
HETATM    9  C6  CLQ  2534       1.584  37.819 233.916  1.00 20.00     0.025 A 
HETATM   10  C7  CLQ  2534       0.723  36.920 233.206  1.00 20.00     0.036 A 
HETATM   11  C8  CLQ  2534      -0.356  36.272 233.829  1.00 20.00     0.054 A 
HETATM   12  C9  CLQ  2534      -0.619  36.510 235.206  1.00 20.00     0.046 A 
ENDROOT
BRANCH   6  13
HETATM   13  N2  CLQ  2534       0.625  38.497 238.160  1.00 20.00    -0.385 N 
ATOM     14  H2  CLQ  2534       0.298  39.462 238.197  1.00  0.00     0.160 HD
BRANCH  13  15
HETATM   15  C10 CLQ  2534       1.865  38.186 238.947  1.00 20.00     0.077 C 
HETATM   16  C18 CLQ  2534       3.046  38.979 238.407  1.00 20.00     0.032 C 
BRANCH  15  17
HETATM   17  C11 CLQ  2534       2.106  36.669 238.948  1.00 20.00     0.026 C 
BRANCH  17  18
HETATM   18  C12 CLQ  2534       3.435  36.189 238.393  1.00 20.00     0.032 C 
BRANCH  18  19
HETATM   19  C13 CLQ  2534       3.225  35.590 237.012  1.00 20.00     0.272 C 
BRANCH  19  20
HETATM   20  N3  CLQ  2534       2.956  34.111 237.028  1.00 20.00     0.087 N 
BRANCH  20  21
HETATM   21  C14 CLQ  2534       3.522  33.418 238.287  1.00 20.00     0.268 C 
HETATM   22  C15 CLQ  2534       3.814  31.923 238.211  1.00 20.00     0.037 C 
ENDBRANCH  20  21
BRANCH  20  23
HETATM   23  C16 CLQ  2534       1.552  33.758 236.624  1.00 20.00     0.268 C 
HETATM   24  C17 CLQ  2534       1.390  33.329 235.203  1.00 20.00     0.037 C 
ENDBRANCH  20  23
ENDBRANCH  19  20
ENDBRANCH  18  19
ENDBRANCH  17  18
ENDBRANCH  15  17
ENDBRANCH  13  15
ENDBRANCH   6  13
TORSDOF 8
ENDMDL
MODEL 6
REMARK VINA RESULT:      -5.2      3.138      7.436
REMARK  8 active torsions:
REMARK  status: ('A' for Active; 'I' for Inactive)
REMARK    1  A    between atoms: C3_6  and  N2_13 
REMARK    2  A    between atoms: C10_15  and  N2_13 
REMARK    3  A    between atoms: C10_15  and  C11_16 
REMARK    4  A    between atoms: C11_16  and  C12_17 
REMARK    5  A    between atoms: C12_17  and  C13_18 
REMARK    6  A    between atoms: C13_18  and  N3_19 
REMARK    7  A    between atoms: C14_20  and  N3_19 
REMARK    8  A    between atoms: C16_22  and  N3_19 
ROOT
HETATM    1 CL   CLQ  2534       0.129  36.186 227.743  1.00 20.00    -0.084 Cl
HETATM    2  N1  CLQ  2534      -2.243  38.715 231.547  1.00 20.00    -0.365 N 
ATOM      3  H1  CLQ  2534      -2.865  39.091 230.831  1.00  0.00     0.165 HD
HETATM    4  C1  CLQ  2534      -2.421  39.088 232.831  1.00 20.00     0.090 A 
HETATM    5  C2  CLQ  2534      -1.598  38.617 233.847  1.00 20.00     0.047 A 
HETATM    6  C3  CLQ  2534      -0.517  37.671 233.575  1.00 20.00     0.042 A 
HETATM    7  C4  CLQ  2534      -0.320  37.246 232.173  1.00 20.00     0.017 A 
HETATM    8  C5  CLQ  2534       0.714  36.324 231.706  1.00 20.00     0.018 A 
HETATM    9  C6  CLQ  2534       0.842  35.990 230.351  1.00 20.00     0.025 A 
HETATM   10  C7  CLQ  2534      -0.059  36.577 229.404  1.00 20.00     0.036 A 
HETATM   11  C8  CLQ  2534      -1.071  37.470 229.791  1.00 20.00     0.054 A 
HETATM   12  C9  CLQ  2534      -1.217  37.816 231.163  1.00 20.00     0.046 A 
ENDROOT
BRANCH   6  13
HETATM   13  N2  CLQ  2534       0.306  37.187 234.555  1.00 20.00    -0.385 N 
ATOM     14  H2  CLQ  2534       1.119  37.760 234.783  1.00  0.00     0.160 HD
BRANCH  13  15
HETATM   15  C10 CLQ  2534       0.156  35.912 235.334  1.00 20.00     0.077 C 
HETATM   16  C18 CLQ  2534      -0.587  36.172 236.635  1.00 20.00     0.032 C 
BRANCH  15  17
HETATM   17  C11 CLQ  2534       1.537  35.273 235.544  1.00 20.00     0.026 C 
BRANCH  17  18
HETATM   18  C12 CLQ  2534       2.163  35.437 236.916  1.00 20.00     0.032 C 
BRANCH  18  19
HETATM   19  C13 CLQ  2534       2.870  36.780 236.997  1.00 20.00     0.272 C 
BRANCH  19  20
HETATM   20  N3  CLQ  2534       2.282  37.714 238.018  1.00 20.00     0.087 N 
BRANCH  20  21
HETATM   21  C14 CLQ  2534       3.035  37.673 239.366  1.00 20.00     0.268 C 
HETATM   22  C15 CLQ  2534       3.983  38.822 239.693  1.00 20.00     0.037 C 
ENDBRANCH  20  21
BRANCH  20  23
HETATM   23  C16 CLQ  2534       1.949  39.070 237.461  1.00 20.00     0.268 C 
HETATM   24  C17 CLQ  2534       0.706  39.692 238.005  1.00 20.00     0.037 C 
ENDBRANCH  20  23
ENDBRANCH  19  20
ENDBRANCH  18  19
ENDBRANCH  17  18
ENDBRANCH  15  17
ENDBRANCH  13  15
ENDBRANCH   6  13
TORSDOF 8
ENDMDL
MODEL 7
REMARK VINA RESULT:      -5.1      2.528      6.075
REMARK  8 active torsions:
REMARK  status: ('A' for Active; 'I' for Inactive)
REMARK    1  A    between atoms: C3_6  and  N2_13 
REMARK    2  A    between atoms: C10_15  and  N2_13 
REMARK    3  A    between atoms: C10_15  and  C11_16 
REMARK    4  A    between atoms: C11_16  and  C12_17 
REMARK    5  A    between atoms: C12_17  and  C13_18 
REMARK    6  A    between atoms: C13_18  and  N3_19 
REMARK    7  A    between atoms: C14_20  and  N3_19 
REMARK    8  A    between atoms: C16_22  and  N3_19 
ROOT
HETATM    1 CL   CLQ  2534       4.156  31.338 237.159  1.00 20.00    -0.084 Cl
HETATM    2  N1  CLQ  2534       1.077  31.312 233.034  1.00 20.00    -0.365 N 
ATOM      3  H1  CLQ  2534       1.391  30.355 232.878  1.00  0.00     0.165 HD
HETATM    4  C1  CLQ  2534       0.198  31.863 232.172  1.00 20.00     0.090 A 
HETATM    5  C2  CLQ  2534      -0.258  33.166 232.328  1.00 20.00     0.047 A 
HETATM    6  C3  CLQ  2534       0.173  33.993 233.455  1.00 20.00     0.042 A 
HETATM    7  C4  CLQ  2534       1.127  33.396 234.413  1.00 20.00     0.017 A 
HETATM    8  C5  CLQ  2534       1.681  34.071 235.586  1.00 20.00     0.018 A 
HETATM    9  C6  CLQ  2534       2.599  33.435 236.433  1.00 20.00     0.025 A 
HETATM   10  C7  CLQ  2534       3.006  32.095 236.133  1.00 20.00     0.036 A 
HETATM   11  C8  CLQ  2534       2.510  31.396 235.021  1.00 20.00     0.054 A 
HETATM   12  C9  CLQ  2534       1.577  32.025 234.153  1.00 20.00     0.046 A 
ENDROOT
BRANCH   6  13
HETATM   13  N2  CLQ  2534      -0.261  35.278 233.637  1.00 20.00    -0.385 N 
ATOM     14  H2  CLQ  2534      -0.988  35.411 234.340  1.00  0.00     0.160 HD
BRANCH  13  15
HETATM   15  C10 CLQ  2534       0.205  36.514 232.924  1.00 20.00     0.077 C 
HETATM   16  C18 CLQ  2534       0.796  36.151 231.570  1.00 20.00     0.032 C 
BRANCH  15  17
HETATM   17  C11 CLQ  2534       1.182  37.287 233.822  1.00 20.00     0.026 C 
BRANCH  17  18
HETATM   18  C12 CLQ  2534       0.572  38.132 234.925  1.00 20.00     0.032 C 
BRANCH  18  19
HETATM   19  C13 CLQ  2534       0.887  37.512 236.276  1.00 20.00     0.272 C 
BRANCH  19  20
HETATM   20  N3  CLQ  2534       2.045  38.159 236.984  1.00 20.00     0.087 N 
BRANCH  20  21
HETATM   21  C14 CLQ  2534       1.669  39.513 237.625  1.00 20.00     0.268 C 
HETATM   22  C15 CLQ  2534       0.355  39.601 238.394  1.00 20.00     0.037 C 
ENDBRANCH  20  21
BRANCH  20  23
HETATM   23  C16 CLQ  2534       2.837  37.198 237.827  1.00 20.00     0.268 C 
HETATM   24  C17 CLQ  2534       3.757  37.833 238.817  1.00 20.00     0.037 C 
ENDBRANCH  20  23
ENDBRANCH  19  20
ENDBRANCH  18  19
ENDBRANCH  17  18
ENDBRANCH  15  17
ENDBRANCH  13  15
ENDBRANCH   6  13
TORSDOF 8
ENDMDL
MODEL 8
REMARK VINA RESULT:      -5.0      3.172      6.985
REMARK  8 active torsions:
REMARK  status: ('A' for Active; 'I' for Inactive)
REMARK    1  A    between atoms: C3_6  and  N2_13 
REMARK    2  A    between atoms: C10_15  and  N2_13 
REMARK    3  A    between atoms: C10_15  and  C11_16 
REMARK    4  A    between atoms: C11_16  and  C12_17 
REMARK    5  A    between atoms: C12_17  and  C13_18 
REMARK    6  A    between atoms: C13_18  and  N3_19 
REMARK    7  A    between atoms: C14_20  and  N3_19 
REMARK    8  A    between atoms: C16_22  and  N3_19 
ROOT
HETATM    1 CL   CLQ  2534      -5.531  34.364 236.360  1.00 20.00    -0.084 Cl
HETATM    2  N1  CLQ  2534      -4.000  38.005 233.060  1.00 20.00    -0.365 N 
ATOM      3  H1  CLQ  2534      -4.940  37.962 232.667  1.00  0.00     0.165 HD
HETATM    4  C1  CLQ  2534      -3.103  38.856 232.522  1.00 20.00     0.090 A 
HETATM    5  C2  CLQ  2534      -1.805  38.951 233.009  1.00 20.00     0.047 A 
HETATM    6  C3  CLQ  2534      -1.359  38.150 234.149  1.00 20.00     0.042 A 
HETATM    7  C4  CLQ  2534      -2.337  37.221 234.754  1.00 20.00     0.017 A 
HETATM    8  C5  CLQ  2534      -2.072  36.331 235.884  1.00 20.00     0.018 A 
HETATM    9  C6  CLQ  2534      -3.055  35.467 236.383  1.00 20.00     0.025 A 
HETATM   10  C7  CLQ  2534      -4.346  35.452 235.761  1.00 20.00     0.036 A 
HETATM   11  C8  CLQ  2534      -4.660  36.281 234.673  1.00 20.00     0.054 A 
HETATM   12  C9  CLQ  2534      -3.675  37.167 234.156  1.00 20.00     0.046 A 
ENDROOT
BRANCH   6  13
HETATM   13  N2  CLQ  2534      -0.089  38.224 234.653  1.00 20.00    -0.385 N 
ATOM     14  H2  CLQ  2534       0.052  38.876 235.424  1.00  0.00     0.160 HD
BRANCH  13  15
HETATM   15  C10 CLQ  2534       1.122  37.459 234.203  1.00 20.00     0.077 C 
HETATM   16  C18 CLQ  2534       1.065  37.212 232.703  1.00 20.00     0.032 C 
BRANCH  15  17
HETATM   17  C11 CLQ  2534       1.247  36.166 235.024  1.00 20.00     0.026 C 
BRANCH  17  18
HETATM   18  C12 CLQ  2534       1.687  36.315 236.468  1.00 20.00     0.032 C 
BRANCH  18  19
HETATM   19  C13 CLQ  2534       2.844  37.298 236.551  1.00 20.00     0.272 C 
BRANCH  19  20
HETATM   20  N3  CLQ  2534       2.772  38.220 237.737  1.00 20.00     0.087 N 
BRANCH  20  21
HETATM   21  C14 CLQ  2534       1.323  38.462 238.214  1.00 20.00     0.268 C 
HETATM   22  C15 CLQ  2534       0.634  39.753 237.785  1.00 20.00     0.037 C 
ENDBRANCH  20  21
BRANCH  20  23
HETATM   23  C16 CLQ  2534       3.798  37.912 238.791  1.00 20.00     0.268 C 
HETATM   24  C17 CLQ  2534       3.756  38.794 239.994  1.00 20.00     0.037 C 
ENDBRANCH  20  23
ENDBRANCH  19  20
ENDBRANCH  18  19
ENDBRANCH  17  18
ENDBRANCH  15  17
ENDBRANCH  13  15
ENDBRANCH   6  13
TORSDOF 8
ENDMDL
MODEL 9
REMARK VINA RESULT:      -5.0      3.538      8.699
REMARK  8 active torsions:
REMARK  status: ('A' for Active; 'I' for Inactive)
REMARK    1  A    between atoms: C3_6  and  N2_13 
REMARK    2  A    between atoms: C10_15  and  N2_13 
REMARK    3  A    between atoms: C10_15  and  C11_16 
REMARK    4  A    between atoms: C11_16  and  C12_17 
REMARK    5  A    between atoms: C12_17  and  C13_18 
REMARK    6  A    between atoms: C13_18  and  N3_19 
REMARK    7  A    between atoms: C14_20  and  N3_19 
REMARK    8  A    between atoms: C16_22  and  N3_19 
ROOT
HETATM    1 CL   CLQ  2534      -4.386  40.075 229.465  1.00 20.00    -0.084 Cl
HETATM    2  N1  CLQ  2534      -1.057  36.354 228.215  1.00 20.00    -0.365 N 
ATOM      3  H1  CLQ  2534      -1.571  36.268 227.339  1.00  0.00     0.165 HD
HETATM    4  C1  CLQ  2534      -0.003  35.542 228.439  1.00 20.00     0.090 A 
HETATM    5  C2  CLQ  2534       0.729  35.607 229.619  1.00 20.00     0.047 A 
HETATM    6  C3  CLQ  2534       0.408  36.581 230.662  1.00 20.00     0.042 A 
HETATM    7  C4  CLQ  2534      -0.738  37.483 230.422  1.00 20.00     0.017 A 
HETATM    8  C5  CLQ  2534      -1.218  38.505 231.352  1.00 20.00     0.018 A 
HETATM    9  C6  CLQ  2534      -2.327  39.307 231.052  1.00 20.00     0.025 A 
HETATM   10  C7  CLQ  2534      -3.008  39.110 229.807  1.00 20.00     0.036 A 
HETATM   11  C8  CLQ  2534      -2.596  38.144 228.875  1.00 20.00     0.054 A 
HETATM   12  C9  CLQ  2534      -1.470  37.324 229.162  1.00 20.00     0.046 A 
ENDROOT
BRANCH   6  13
HETATM   13  N2  CLQ  2534       1.113  36.670 231.831  1.00 20.00    -0.385 N 
ATOM     14  H2  CLQ  2534       1.928  37.283 231.819  1.00  0.00     0.160 HD
BRANCH  13  15
HETATM   15  C10 CLQ  2534       0.828  35.972 233.130  1.00 20.00     0.077 C 
HETATM   16  C18 CLQ  2534      -0.042  34.747 232.892  1.00 20.00     0.032 C 
BRANCH  15  17
HETATM   17  C11 CLQ  2534       0.210  36.968 234.123  1.00 20.00     0.026 C 
BRANCH  17  18
HETATM   18  C12 CLQ  2534       1.157  37.961 234.771  1.00 20.00     0.032 C 
BRANCH  18  19
HETATM   19  C13 CLQ  2534       1.415  37.554 236.213  1.00 20.00     0.272 C 
BRANCH  19  20
HETATM   20  N3  CLQ  2534       2.629  38.204 236.817  1.00 20.00     0.087 N 
BRANCH  20  21
HETATM   21  C14 CLQ  2534       2.270  39.358 237.778  1.00 20.00     0.268 C 
HETATM   22  C15 CLQ  2534       0.899  39.333 238.446  1.00 20.00     0.037 C 
ENDBRANCH  20  21
BRANCH  20  23
HETATM   23  C16 CLQ  2534       3.659  37.215 237.288  1.00 20.00     0.268 C 
HETATM   24  C17 CLQ  2534       3.266  35.781 237.160  1.00 20.00     0.037 C 
ENDBRANCH  20  23
ENDBRANCH  19  20
ENDBRANCH  18  19
ENDBRANCH  17  18
ENDBRANCH  15  17
ENDBRANCH  13  15
ENDBRANCH   6  13
TORSDOF 8
ENDMDL
