MODEL 1
REMARK VINA RESULT:      -7.4      0.000      0.000
REMARK  1 active torsions:
REMARK  status: ('A' for Active; 'I' for Inactive)
REMARK    1  A    between atoms: C17_18  and  O17_19 
ROOT
HETATM    1  C1  TES  7178      -0.059  33.191 233.920  1.00 20.00     0.022 C 
HETATM    2  C2  TES  7178      -0.038  31.746 233.407  1.00 20.00     0.084 C 
HETATM    3  C3  TES  7178       1.337  31.195 233.353  1.00 20.00     0.149 C 
HETATM    4  O3  TES  7178       1.746  30.479 232.472  1.00 20.00    -0.293 OA
HETATM    5  C4  TES  7178       2.189  31.534 234.468  1.00 20.00     0.053 C 
HETATM    6  C5  TES  7178       1.896  32.487 235.384  1.00 20.00    -0.068 C 
HETATM    7  C6  TES  7178       2.846  32.723 236.519  1.00 20.00     0.035 C 
HETATM    8  C7  TES  7178       3.273  34.181 236.633  1.00 20.00     0.010 C 
HETATM    9  C8  TES  7178       2.027  35.071 236.642  1.00 20.00    -0.004 C 
HETATM   10  C9  TES  7178       1.085  34.835 235.454  1.00 20.00     0.002 C 
HETATM   11  C10 TES  7178       0.634  33.376 235.292  1.00 20.00    -0.016 C 
HETATM   12  C11 TES  7178      -0.166  35.744 235.424  1.00 20.00     0.007 C 
HETATM   13  C12 TES  7178       0.259  37.221 235.482  1.00 20.00     0.012 C 
HETATM   14  C13 TES  7178       1.166  37.494 236.677  1.00 20.00    -0.014 C 
HETATM   15  C14 TES  7178       2.378  36.554 236.617  1.00 20.00     0.001 C 
HETATM   16  C15 TES  7178       3.352  37.097 237.663  1.00 20.00     0.008 C 
HETATM   17  C16 TES  7178       3.193  38.622 237.518  1.00 20.00     0.033 C 
HETATM   18  C17 TES  7178       1.978  38.826 236.577  1.00 20.00     0.126 C 
HETATM   19  C18 TES  7178       0.414  37.384 238.018  1.00 20.00     0.018 C 
HETATM   20  C19 TES  7178      -0.303  32.961 236.445  1.00 20.00     0.020 C 
ENDROOT
BRANCH  18  21
HETATM   21  O17 TES  7178       1.216  40.011 236.840  1.00 20.00    -0.395 OA
ATOM     22  H17 TES  7178       0.658  39.962 237.607  1.00  0.00     0.210 HD
ENDBRANCH  18  21
TORSDOF 1
ENDMDL
MODEL 2
REMARK VINA RESULT:      -7.0      2.248      6.034
REMARK  1 active torsions:
REMARK  status: ('A' for Active; 'I' for Inactive)
REMARK    1  A    between atoms: C17_18  and  O17_19 
ROOT
HETATM    1  C1  TES  7178       2.449  35.629 238.415  1.00 20.00     0.022 C 
HETATM    2  C2  TES  7178       3.055  36.289 239.660  1.00 20.00     0.084 C 
HETATM    3  C3  TES  7178       3.789  37.533 239.328  1.00 20.00     0.149 C 
HETATM    4  O3  TES  7178       4.825  37.867 239.848  1.00 20.00    -0.293 OA
HETATM    5  C4  TES  7178       3.163  38.384 238.344  1.00 20.00     0.053 C 
HETATM    6  C5  TES  7178       2.124  38.002 237.563  1.00 20.00    -0.068 C 
HETATM    7  C6  TES  7178       1.535  38.989 236.601  1.00 20.00     0.035 C 
HETATM    8  C7  TES  7178       1.486  38.459 235.173  1.00 20.00     0.010 C 
HETATM    9  C8  TES  7178       0.817  37.082 235.171  1.00 20.00    -0.004 C 
HETATM   10  C9  TES  7178       1.457  36.078 236.139  1.00 20.00     0.002 C 
HETATM   11  C10 TES  7178       1.538  36.572 237.591  1.00 20.00    -0.016 C 
HETATM   12  C11 TES  7178       0.819  34.669 236.132  1.00 20.00     0.007 C 
HETATM   13  C12 TES  7178       0.816  34.103 234.702  1.00 20.00     0.012 C 
HETATM   14  C13 TES  7178       0.150  35.065 233.723  1.00 20.00    -0.014 C 
HETATM   15  C14 TES  7178       0.854  36.426 233.795  1.00 20.00     0.001 C 
HETATM   16  C15 TES  7178       0.324  37.210 232.593  1.00 20.00     0.008 C 
HETATM   17  C16 TES  7178       0.227  36.130 231.499  1.00 20.00     0.033 C 
HETATM   18  C17 TES  7178       0.479  34.781 232.221  1.00 20.00     0.126 C 
HETATM   19  C18 TES  7178      -1.367  35.182 233.962  1.00 20.00     0.018 C 
HETATM   20  C19 TES  7178       0.131  36.666 238.217  1.00 20.00     0.020 C 
ENDROOT
BRANCH  18  21
HETATM   21  O17 TES  7178      -0.220  33.666 231.656  1.00 20.00    -0.395 OA
ATOM     22  H17 TES  7178       0.080  33.405 230.794  1.00  0.00     0.210 HD
ENDBRANCH  18  21
TORSDOF 1
ENDMDL
MODEL 3
REMARK VINA RESULT:      -6.8      2.688      3.768
REMARK  1 active torsions:
REMARK  status: ('A' for Active; 'I' for Inactive)
REMARK    1  A    between atoms: C17_18  and  O17_19 
ROOT
HETATM    1  C1  TES  7178       0.623  37.098 231.708  1.00 20.00     0.022 C 
HETATM    2  C2  TES  7178       0.037  36.732 230.338  1.00 20.00     0.084 C 
HETATM    3  C3  TES  7178       0.263  35.307 230.000  1.00 20.00     0.149 C 
HETATM    4  O3  TES  7178       0.540  34.908 228.896  1.00 20.00    -0.293 OA
HETATM    5  C4  TES  7178       0.088  34.372 231.086  1.00 20.00     0.053 C 
HETATM    6  C5  TES  7178      -0.015  34.733 232.388  1.00 20.00    -0.068 C 
HETATM    7  C6  TES  7178      -0.230  33.671 233.423  1.00 20.00     0.035 C 
HETATM    8  C7  TES  7178       0.803  33.724 234.542  1.00 20.00     0.010 C 
HETATM    9  C8  TES  7178       0.876  35.152 235.090  1.00 20.00    -0.004 C 
HETATM   10  C9  TES  7178       1.130  36.219 234.018  1.00 20.00     0.002 C 
HETATM   11  C10 TES  7178       0.118  36.198 232.862  1.00 20.00    -0.016 C 
HETATM   12  C11 TES  7178       1.240  37.667 234.551  1.00 20.00     0.007 C 
HETATM   13  C12 TES  7178       2.321  37.741 235.642  1.00 20.00     0.012 C 
HETATM   14  C13 TES  7178       2.073  36.715 236.744  1.00 20.00    -0.014 C 
HETATM   15  C14 TES  7178       1.987  35.316 236.122  1.00 20.00     0.001 C 
HETATM   16  C15 TES  7178       2.037  34.352 237.308  1.00 20.00     0.008 C 
HETATM   17  C16 TES  7178       3.051  35.025 238.252  1.00 20.00     0.033 C 
HETATM   18  C17 TES  7178       3.318  36.427 237.645  1.00 20.00     0.126 C 
HETATM   19  C18 TES  7178       0.827  37.053 237.585  1.00 20.00     0.018 C 
HETATM   20  C19 TES  7178      -1.274  36.651 233.346  1.00 20.00     0.020 C 
ENDROOT
BRANCH  18  21
HETATM   21  O17 TES  7178       3.607  37.446 238.610  1.00 20.00    -0.395 OA
ATOM     22  H17 TES  7178       3.753  37.127 239.492  1.00  0.00     0.210 HD
ENDBRANCH  18  21
TORSDOF 1
ENDMDL
MODEL 4
REMARK VINA RESULT:      -6.7      2.920      6.015
REMARK  1 active torsions:
REMARK  status: ('A' for Active; 'I' for Inactive)
REMARK    1  A    between atoms: C17_18  and  O17_19 
ROOT
HETATM    1  C1  TES  7178       1.250  34.446 236.463  1.00 20.00     0.022 C 
HETATM    2  C2  TES  7178       1.793  34.888 237.827  1.00 20.00     0.084 C 
HETATM    3  C3  TES  7178       2.839  35.930 237.699  1.00 20.00     0.149 C 
HETATM    4  O3  TES  7178       3.832  35.982 238.383  1.00 20.00    -0.293 OA
HETATM    5  C4  TES  7178       2.588  36.946 236.704  1.00 20.00     0.053 C 
HETATM    6  C5  TES  7178       1.624  36.859 235.758  1.00 20.00    -0.068 C 
HETATM    7  C6  TES  7178       1.437  37.998 234.801  1.00 20.00     0.035 C 
HETATM    8  C7  TES  7178       1.487  37.554 233.344  1.00 20.00     0.010 C 
HETATM    9  C8  TES  7178       0.524  36.381 233.143  1.00 20.00    -0.004 C 
HETATM   10  C9  TES  7178       0.754  35.213 234.111  1.00 20.00     0.002 C 
HETATM   11  C10 TES  7178       0.723  35.614 235.594  1.00 20.00    -0.016 C 
HETATM   12  C11 TES  7178      -0.185  34.002 233.907  1.00 20.00     0.007 C 
HETATM   13  C12 TES  7178      -0.098  33.512 232.452  1.00 20.00     0.012 C 
HETATM   14  C13 TES  7178      -0.362  34.646 231.465  1.00 20.00    -0.014 C 
HETATM   15  C14 TES  7178       0.619  35.792 231.740  1.00 20.00     0.001 C 
HETATM   16  C15 TES  7178       0.479  36.729 230.539  1.00 20.00     0.008 C 
HETATM   17  C16 TES  7178       0.304  35.750 229.362  1.00 20.00     0.033 C 
HETATM   18  C17 TES  7178       0.120  34.353 230.007  1.00 20.00     0.126 C 
HETATM   19  C18 TES  7178      -1.829  35.117 231.497  1.00 20.00     0.018 C 
HETATM   20  C19 TES  7178      -0.702  36.020 236.021  1.00 20.00     0.020 C 
ENDROOT
BRANCH  18  21
HETATM   21  O17 TES  7178      -0.724  33.463 229.266  1.00 20.00    -0.395 OA
ATOM     22  H17 TES  7178      -0.952  32.661 229.721  1.00  0.00     0.210 HD
ENDBRANCH  18  21
TORSDOF 1
ENDMDL
MODEL 5
REMARK VINA RESULT:      -6.6      2.213      3.089
REMARK  1 active torsions:
REMARK  status: ('A' for Active; 'I' for Inactive)
REMARK    1  A    between atoms: C17_18  and  O17_19 
ROOT
HETATM    1  C1  TES  7178       0.778  36.424 233.402  1.00 20.00     0.022 C 
HETATM    2  C2  TES  7178       0.024  35.596 232.354  1.00 20.00     0.084 C 
HETATM    3  C3  TES  7178      -0.040  34.161 232.720  1.00 20.00     0.149 C 
HETATM    4  O3  TES  7178       0.069  33.255 231.932  1.00 20.00    -0.293 OA
HETATM    5  C4  TES  7178      -0.290  33.884 234.115  1.00 20.00     0.053 C 
HETATM    6  C5  TES  7178      -0.219  34.814 235.097  1.00 20.00    -0.068 C 
HETATM    7  C6  TES  7178      -0.536  34.411 236.506  1.00 20.00     0.035 C 
HETATM    8  C7  TES  7178       0.578  34.765 237.483  1.00 20.00     0.010 C 
HETATM    9  C8  TES  7178       0.953  36.239 237.305  1.00 20.00    -0.004 C 
HETATM   10  C9  TES  7178       1.305  36.622 235.861  1.00 20.00     0.002 C 
HETATM   11  C10 TES  7178       0.215  36.274 234.837  1.00 20.00    -0.016 C 
HETATM   12  C11 TES  7178       1.719  38.099 235.661  1.00 20.00     0.007 C 
HETATM   13  C12 TES  7178       2.882  38.449 236.604  1.00 20.00     0.012 C 
HETATM   14  C13 TES  7178       2.544  38.115 238.054  1.00 20.00    -0.014 C 
HETATM   15  C14 TES  7178       2.156  36.634 238.154  1.00 20.00     0.001 C 
HETATM   16  C15 TES  7178       2.129  36.332 239.653  1.00 20.00     0.008 C 
HETATM   17  C16 TES  7178       3.322  37.148 240.186  1.00 20.00     0.033 C 
HETATM   18  C17 TES  7178       3.786  38.031 239.000  1.00 20.00     0.126 C 
HETATM   19  C18 TES  7178       1.452  39.040 238.626  1.00 20.00     0.018 C 
HETATM   20  C19 TES  7178      -1.028  37.164 235.038  1.00 20.00     0.020 C 
ENDROOT
BRANCH  18  21
HETATM   21  O17 TES  7178       4.332  39.299 239.382  1.00 20.00    -0.395 OA
ATOM     22  H17 TES  7178       5.206  39.259 239.753  1.00  0.00     0.210 HD
ENDBRANCH  18  21
TORSDOF 1
ENDMDL
MODEL 6
REMARK VINA RESULT:      -6.5      3.503      4.810
REMARK  1 active torsions:
REMARK  status: ('A' for Active; 'I' for Inactive)
REMARK    1  A    between atoms: C17_18  and  O17_19 
ROOT
HETATM    1  C1  TES  7178      -2.615  37.491 234.327  1.00 20.00     0.022 C 
HETATM    2  C2  TES  7178      -3.350  37.658 232.992  1.00 20.00     0.084 C 
HETATM    3  C3  TES  7178      -2.553  38.430 232.010  1.00 20.00     0.149 C 
HETATM    4  O3  TES  7178      -3.017  39.241 231.247  1.00 20.00    -0.293 OA
HETATM    5  C4  TES  7178      -1.142  38.126 231.976  1.00 20.00     0.053 C 
HETATM    6  C5  TES  7178      -0.500  37.397 232.920  1.00 20.00    -0.068 C 
HETATM    7  C6  TES  7178       0.963  37.118 232.756  1.00 20.00     0.035 C 
HETATM    8  C7  TES  7178       1.780  37.535 233.972  1.00 20.00     0.010 C 
HETATM    9  C8  TES  7178       1.149  36.933 235.231  1.00 20.00    -0.004 C 
HETATM   10  C9  TES  7178      -0.342  37.258 235.396  1.00 20.00     0.002 C 
HETATM   11  C10 TES  7178      -1.206  36.865 234.189  1.00 20.00    -0.016 C 
HETATM   12  C11 TES  7178      -0.995  36.689 236.677  1.00 20.00     0.007 C 
HETATM   13  C12 TES  7178      -0.209  37.151 237.915  1.00 20.00     0.012 C 
HETATM   14  C13 TES  7178       1.272  36.806 237.796  1.00 20.00    -0.014 C 
HETATM   15  C14 TES  7178       1.831  37.418 236.505  1.00 20.00     0.001 C 
HETATM   16  C15 TES  7178       3.349  37.276 236.625  1.00 20.00     0.008 C 
HETATM   17  C16 TES  7178       3.601  37.556 238.119  1.00 20.00     0.033 C 
HETATM   18  C17 TES  7178       2.197  37.599 238.777  1.00 20.00     0.126 C 
HETATM   19  C18 TES  7178       1.526  35.288 237.876  1.00 20.00     0.018 C 
HETATM   20  C19 TES  7178      -1.294  35.331 234.055  1.00 20.00     0.020 C 
ENDROOT
BRANCH  18  21
HETATM   21  O17 TES  7178       2.162  37.140 240.133  1.00 20.00    -0.395 OA
ATOM     22  H17 TES  7178       1.435  37.471 240.646  1.00  0.00     0.210 HD
ENDBRANCH  18  21
TORSDOF 1
ENDMDL
MODEL 7
REMARK VINA RESULT:      -6.4      2.678      5.346
REMARK  1 active torsions:
REMARK  status: ('A' for Active; 'I' for Inactive)
REMARK    1  A    between atoms: C17_18  and  O17_19 
ROOT
HETATM    1  C1  TES  7178       2.047  37.059 238.586  1.00 20.00     0.022 C 
HETATM    2  C2  TES  7178       2.841  36.741 239.859  1.00 20.00     0.084 C 
HETATM    3  C3  TES  7178       2.825  35.294 240.177  1.00 20.00     0.149 C 
HETATM    4  O3  TES  7178       2.740  34.847 241.294  1.00 20.00    -0.293 OA
HETATM    5  C4  TES  7178       2.965  34.405 239.048  1.00 20.00     0.053 C 
HETATM    6  C5  TES  7178       2.859  34.798 237.757  1.00 20.00    -0.068 C 
HETATM    7  C6  TES  7178       3.060  33.786 236.669  1.00 20.00     0.035 C 
HETATM    8  C7  TES  7178       1.892  33.737 235.691  1.00 20.00     0.010 C 
HETATM    9  C8  TES  7178       1.586  35.155 235.201  1.00 20.00    -0.004 C 
HETATM   10  C9  TES  7178       1.352  36.166 236.331  1.00 20.00     0.002 C 
HETATM   11  C10 TES  7178       2.499  36.245 237.349  1.00 20.00    -0.016 C 
HETATM   12  C11 TES  7178       1.009  37.600 235.862  1.00 20.00     0.007 C 
HETATM   13  C12 TES  7178      -0.204  37.565 234.918  1.00 20.00     0.012 C 
HETATM   14  C13 TES  7178       0.017  36.595 233.761  1.00 20.00    -0.014 C 
HETATM   15  C14 TES  7178       0.341  35.205 234.323  1.00 20.00     0.001 C 
HETATM   16  C15 TES  7178       0.250  34.262 233.123  1.00 20.00     0.008 C 
HETATM   17  C16 TES  7178      -0.947  34.827 232.335  1.00 20.00     0.033 C 
HETATM   18  C17 TES  7178      -1.292  36.177 233.015  1.00 20.00     0.126 C 
HETATM   19  C18 TES  7178       1.098  37.091 232.782  1.00 20.00     0.018 C 
HETATM   20  C19 TES  7178       3.757  36.866 236.710  1.00 20.00     0.020 C 
ENDROOT
BRANCH  18  21
HETATM   21  O17 TES  7178      -1.817  37.172 232.127  1.00 20.00    -0.395 OA
ATOM     22  H17 TES  7178      -1.330  37.279 231.318  1.00  0.00     0.210 HD
ENDBRANCH  18  21
TORSDOF 1
ENDMDL
MODEL 8
REMARK VINA RESULT:      -6.2      3.101      6.703
REMARK  1 active torsions:
REMARK  status: ('A' for Active; 'I' for Inactive)
REMARK    1  A    between atoms: C17_18  and  O17_19 
ROOT
HETATM    1  C1  TES  7178       1.775  38.146 235.598  1.00 20.00     0.022 C 
HETATM    2  C2  TES  7178       2.092  38.518 237.052  1.00 20.00     0.084 C 
HETATM    3  C3  TES  7178       0.865  38.778 237.840  1.00 20.00     0.149 C 
HETATM    4  O3  TES  7178       0.763  39.649 238.668  1.00 20.00    -0.293 OA
HETATM    5  C4  TES  7178      -0.237  37.879 237.594  1.00 20.00     0.053 C 
HETATM    6  C5  TES  7178      -0.293  37.016 236.551  1.00 20.00    -0.068 C 
HETATM    7  C6  TES  7178      -1.477  36.105 236.422  1.00 20.00     0.035 C 
HETATM    8  C7  TES  7178      -2.150  36.208 235.058  1.00 20.00     0.010 C 
HETATM    9  C8  TES  7178      -1.092  36.048 233.963  1.00 20.00    -0.004 C 
HETATM   10  C9  TES  7178       0.094  37.012 234.097  1.00 20.00     0.002 C 
HETATM   11  C10 TES  7178       0.800  36.951 235.460  1.00 20.00    -0.016 C 
HETATM   12  C11 TES  7178       1.161  36.891 232.983  1.00 20.00     0.007 C 
HETATM   13  C12 TES  7178       0.498  37.051 231.605  1.00 20.00     0.012 C 
HETATM   14  C13 TES  7178      -0.663  36.077 231.428  1.00 20.00    -0.014 C 
HETATM   15  C14 TES  7178      -1.668  36.276 232.569  1.00 20.00     0.001 C 
HETATM   16  C15 TES  7178      -2.907  35.486 232.148  1.00 20.00     0.008 C 
HETATM   17  C16 TES  7178      -2.973  35.739 230.630  1.00 20.00     0.033 C 
HETATM   18  C17 TES  7178      -1.643  36.450 230.269  1.00 20.00     0.126 C 
HETATM   19  C18 TES  7178      -0.186  34.615 231.323  1.00 20.00     0.018 C 
HETATM   20  C19 TES  7178       1.542  35.610 235.633  1.00 20.00     0.020 C 
ENDROOT
BRANCH  18  21
HETATM   21  O17 TES  7178      -1.153  36.160 228.954  1.00 20.00    -0.395 OA
ATOM     22  H17 TES  7178      -1.459  36.751 228.277  1.00  0.00     0.210 HD
ENDBRANCH  18  21
TORSDOF 1
ENDMDL
MODEL 9
REMARK VINA RESULT:      -6.1      1.773      6.137
REMARK  1 active torsions:
REMARK  status: ('A' for Active; 'I' for Inactive)
REMARK    1  A    between atoms: C17_18  and  O17_19 
ROOT
HETATM    1  C1  TES  7178       0.739  38.144 237.730  1.00 20.00     0.022 C 
HETATM    2  C2  TES  7178       1.552  39.139 238.568  1.00 20.00     0.084 C 
HETATM    3  C3  TES  7178       2.606  38.466 239.363  1.00 20.00     0.149 C 
HETATM    4  O3  TES  7178       2.906  38.775 240.490  1.00 20.00    -0.293 OA
HETATM    5  C4  TES  7178       3.316  37.405 238.688  1.00 20.00     0.053 C 
HETATM    6  C5  TES  7178       2.918  36.852 237.517  1.00 20.00    -0.068 C 
HETATM    7  C6  TES  7178       3.760  35.780 236.895  1.00 20.00     0.035 C 
HETATM    8  C7  TES  7178       2.968  34.513 236.593  1.00 20.00     0.010 C 
HETATM    9  C8  TES  7178       1.711  34.883 235.802  1.00 20.00    -0.004 C 
HETATM   10  C9  TES  7178       0.847  35.959 236.473  1.00 20.00     0.002 C 
HETATM   11  C10 TES  7178       1.605  37.253 236.806  1.00 20.00    -0.016 C 
HETATM   12  C11 TES  7178      -0.446  36.328 235.709  1.00 20.00     0.007 C 
HETATM   13  C12 TES  7178      -1.279  35.061 235.449  1.00 20.00     0.012 C 
HETATM   14  C13 TES  7178      -0.455  33.986 234.746  1.00 20.00    -0.014 C 
HETATM   15  C14 TES  7178       0.796  33.684 235.580  1.00 20.00     0.001 C 
HETATM   16  C15 TES  7178       1.386  32.415 234.962  1.00 20.00     0.008 C 
HETATM   17  C16 TES  7178       0.131  31.594 234.608  1.00 20.00     0.033 C 
HETATM   18  C17 TES  7178      -1.068  32.550 234.830  1.00 20.00     0.126 C 
HETATM   19  C18 TES  7178      -0.107  34.374 233.296  1.00 20.00     0.018 C 
HETATM   20  C19 TES  7178       1.993  38.007 235.519  1.00 20.00     0.020 C 
ENDROOT
BRANCH  18  21
HETATM   21  O17 TES  7178      -2.179  32.323 233.954  1.00 20.00    -0.395 OA
ATOM     22  H17 TES  7178      -1.943  32.169 233.047  1.00  0.00     0.210 HD
ENDBRANCH  18  21
TORSDOF 1
ENDMDL
