MODEL 1
REMARK VINA RESULT:      -7.1      0.000      0.000
REMARK  0 active torsions:
REMARK  status: ('A' for Active; 'I' for Inactive)
ROOT
HETATM    1  C1  ESR  3412       3.812  38.093 239.169  1.00 20.00     0.127 C 
HETATM    2  C2  ESR  3412       3.716  36.668 238.612  1.00 20.00     0.083 C 
HETATM    3  C3  ESR  3412       2.525  36.328 237.745  1.00 20.00    -0.003 C 
HETATM    4  C4  ESR  3412       2.240  37.510 236.630  1.00 20.00    -0.005 C 
HETATM    5  C5  ESR  3412       1.954  38.931 237.382  1.00 20.00     0.013 C 
HETATM    6  C6  ESR  3412       3.214  39.294 238.257  1.00 20.00     0.079 C 
HETATM    7  C10 ESR  3412       2.819  34.964 237.082  1.00 20.00     0.006 C 
HETATM    8  C11 ESR  3412       1.645  34.515 236.139  1.00 20.00     0.006 C 
HETATM    9  C12 ESR  3412       1.368  35.623 235.003  1.00 20.00    -0.005 C 
HETATM   10  C13 ESR  3412       0.970  37.089 235.721  1.00 20.00    -0.006 C 
HETATM   11  C16 ESR  3412       0.190  35.163 234.055  1.00 20.00     0.006 C 
HETATM   12  C17 ESR  3412      -0.152  36.193 232.925  1.00 20.00     0.021 C 
HETATM   13  C19 ESR  3412       0.654  38.251 234.547  1.00 20.00     0.006 C 
HETATM   14  C24 ESR  3412       0.344  33.808 233.242  1.00 20.00     0.013 C 
HETATM   15  C25 ESR  3412      -0.987  33.911 232.425  1.00 20.00     0.079 C 
HETATM   16  C26 ESR  3412      -1.256  35.488 232.216  1.00 20.00     0.135 C 
HETATM   17  C27 ESR  3412       0.964  36.600 231.761  1.00 20.00     0.024 C 
HETATM   18  O1  ESR  3412       4.287  38.234 240.184  1.00 20.00    -0.298 OA
HETATM   19  C18 ESR  3412      -0.622  37.608 233.783  1.00 20.00     0.017 C 
HETATM   20  O26 ESR  3412      -2.150  35.941 231.645  1.00 20.00    -0.297 OA
ENDROOT
TORSDOF 0
ENDMDL
MODEL 2
REMARK VINA RESULT:      -6.9      2.477      6.189
REMARK  0 active torsions:
REMARK  status: ('A' for Active; 'I' for Inactive)
ROOT
HETATM    1  C1  ESR  3412       1.178  30.959 233.402  1.00 20.00     0.127 C 
HETATM    2  C2  ESR  3412       2.054  31.337 234.603  1.00 20.00     0.083 C 
HETATM    3  C3  ESR  3412       2.317  32.804 234.850  1.00 20.00    -0.003 C 
HETATM    4  C4  ESR  3412       0.932  33.691 234.719  1.00 20.00    -0.005 C 
HETATM    5  C5  ESR  3412       0.295  33.516 233.226  1.00 20.00     0.013 C 
HETATM    6  C6  ESR  3412      -0.008  31.987 232.989  1.00 20.00     0.079 C 
HETATM    7  C10 ESR  3412       2.952  32.924 236.254  1.00 20.00     0.006 C 
HETATM    8  C11 ESR  3412       3.257  34.419 236.625  1.00 20.00     0.006 C 
HETATM    9  C12 ESR  3412       1.916  35.310 236.557  1.00 20.00    -0.005 C 
HETATM   10  C13 ESR  3412       1.266  35.247 235.009  1.00 20.00    -0.006 C 
HETATM   11  C16 ESR  3412       2.229  36.813 236.937  1.00 20.00     0.006 C 
HETATM   12  C17 ESR  3412       0.975  37.752 236.885  1.00 20.00     0.021 C 
HETATM   13  C19 ESR  3412      -0.121  36.193 234.916  1.00 20.00     0.006 C 
HETATM   14  C24 ESR  3412       2.831  37.132 238.371  1.00 20.00     0.013 C 
HETATM   15  C25 ESR  3412       2.822  38.692 238.250  1.00 20.00     0.079 C 
HETATM   16  C26 ESR  3412       1.574  39.053 237.294  1.00 20.00     0.135 C 
HETATM   17  C27 ESR  3412      -0.330  37.505 237.885  1.00 20.00     0.024 C 
HETATM   18  O1  ESR  3412       1.403  29.991 232.865  1.00 20.00    -0.298 OA
HETATM   19  C18 ESR  3412       0.463  37.668 235.245  1.00 20.00     0.017 C 
HETATM   20  O26 ESR  3412       1.255  40.119 236.990  1.00 20.00    -0.297 OA
ENDROOT
TORSDOF 0
ENDMDL
MODEL 3
REMARK VINA RESULT:      -6.8      1.356      2.860
REMARK  0 active torsions:
REMARK  status: ('A' for Active; 'I' for Inactive)
ROOT
HETATM    1  C1  ESR  3412       3.330  37.981 239.787  1.00 20.00     0.127 C 
HETATM    2  C2  ESR  3412       2.836  38.694 238.522  1.00 20.00     0.083 C 
HETATM    3  C3  ESR  3412       2.721  37.880 237.253  1.00 20.00    -0.003 C 
HETATM    4  C4  ESR  3412       1.991  36.429 237.538  1.00 20.00    -0.005 C 
HETATM    5  C5  ESR  3412       2.851  35.575 238.632  1.00 20.00     0.013 C 
HETATM    6  C6  ESR  3412       2.939  36.416 239.963  1.00 20.00     0.079 C 
HETATM    7  C10 ESR  3412       1.935  38.735 236.234  1.00 20.00     0.006 C 
HETATM    8  C11 ESR  3412       1.740  37.976 234.872  1.00 20.00     0.006 C 
HETATM    9  C12 ESR  3412       0.984  36.573 235.102  1.00 20.00    -0.005 C 
HETATM   10  C13 ESR  3412       1.877  35.608 236.149  1.00 20.00    -0.006 C 
HETATM   11  C16 ESR  3412       0.786  35.818 233.727  1.00 20.00     0.006 C 
HETATM   12  C17 ESR  3412       0.066  34.433 233.865  1.00 20.00     0.021 C 
HETATM   13  C19 ESR  3412       1.112  34.129 236.379  1.00 20.00     0.006 C 
HETATM   14  C24 ESR  3412      -0.052  36.522 232.579  1.00 20.00     0.013 C 
HETATM   15  C25 ESR  3412      -0.028  35.338 231.556  1.00 20.00     0.079 C 
HETATM   16  C26 ESR  3412       0.019  33.991 232.443  1.00 20.00     0.135 C 
HETATM   17  C27 ESR  3412      -1.491  34.323 234.439  1.00 20.00     0.024 C 
HETATM   18  O1  ESR  3412       3.941  38.577 240.527  1.00 20.00    -0.298 OA
HETATM   19  C18 ESR  3412       1.113  33.519 234.878  1.00 20.00     0.017 C 
HETATM   20  O26 ESR  3412       0.035  32.917 232.022  1.00 20.00    -0.297 OA
ENDROOT
TORSDOF 0
ENDMDL
MODEL 4
REMARK VINA RESULT:      -6.7      1.328      6.484
REMARK  0 active torsions:
REMARK  status: ('A' for Active; 'I' for Inactive)
ROOT
HETATM    1  C1  ESR  3412      -0.235  34.945 231.609  1.00 20.00     0.127 C 
HETATM    2  C2  ESR  3412      -0.275  34.222 232.961  1.00 20.00     0.083 C 
HETATM    3  C3  ESR  3412       0.677  34.689 234.038  1.00 20.00    -0.003 C 
HETATM    4  C4  ESR  3412       0.691  36.334 234.153  1.00 20.00    -0.005 C 
HETATM    5  C5  ESR  3412       1.149  36.990 232.730  1.00 20.00     0.013 C 
HETATM    6  C6  ESR  3412       0.132  36.526 231.617  1.00 20.00     0.079 C 
HETATM    7  C10 ESR  3412       0.233  34.019 235.358  1.00 20.00     0.006 C 
HETATM    8  C11 ESR  3412       1.150  34.447 236.560  1.00 20.00     0.006 C 
HETATM    9  C12 ESR  3412       1.152  36.048 236.737  1.00 20.00    -0.005 C 
HETATM   10  C13 ESR  3412       1.709  36.777 235.329  1.00 20.00    -0.006 C 
HETATM   11  C16 ESR  3412       2.071  36.472 237.951  1.00 20.00     0.006 C 
HETATM   12  C17 ESR  3412       2.136  38.020 238.184  1.00 20.00     0.021 C 
HETATM   13  C19 ESR  3412       1.740  38.449 235.506  1.00 20.00     0.006 C 
HETATM   14  C24 ESR  3412       1.727  35.925 239.400  1.00 20.00     0.013 C 
HETATM   15  C25 ESR  3412       2.828  36.719 240.181  1.00 20.00     0.079 C 
HETATM   16  C26 ESR  3412       3.041  38.095 239.366  1.00 20.00     0.135 C 
HETATM   17  C27 ESR  3412       0.777  38.891 238.582  1.00 20.00     0.024 C 
HETATM   18  O1  ESR  3412      -0.456  34.343 230.679  1.00 20.00    -0.298 OA
HETATM   19  C18 ESR  3412       2.798  38.633 236.719  1.00 20.00     0.017 C 
HETATM   20  O26 ESR  3412       3.775  38.935 239.658  1.00 20.00    -0.297 OA
ENDROOT
TORSDOF 0
ENDMDL
MODEL 5
REMARK VINA RESULT:      -6.6      8.737     10.607
REMARK  0 active torsions:
REMARK  status: ('A' for Active; 'I' for Inactive)
ROOT
HETATM    1  C1  ESR  3412       1.797  44.005 229.103  1.00 20.00     0.127 C 
HETATM    2  C2  ESR  3412       0.950  42.884 229.718  1.00 20.00     0.083 C 
HETATM    3  C3  ESR  3412      -0.518  42.832 229.359  1.00 20.00    -0.003 C 
HETATM    4  C4  ESR  3412      -0.746  43.038 227.738  1.00 20.00    -0.005 C 
HETATM    5  C5  ESR  3412      -0.143  44.481 227.268  1.00 20.00     0.013 C 
HETATM    6  C6  ESR  3412       1.395  44.515 227.615  1.00 20.00     0.079 C 
HETATM    7  C10 ESR  3412      -1.058  41.471 229.852  1.00 20.00     0.006 C 
HETATM    8  C11 ESR  3412      -2.583  41.299 229.517  1.00 20.00     0.006 C 
HETATM    9  C12 ESR  3412      -2.841  41.445 227.934  1.00 20.00    -0.005 C 
HETATM   10  C13 ESR  3412      -2.327  42.956 227.408  1.00 20.00    -0.006 C 
HETATM   11  C16 ESR  3412      -4.377  41.265 227.603  1.00 20.00     0.006 C 
HETATM   12  C17 ESR  3412      -4.715  41.404 226.079  1.00 20.00     0.021 C 
HETATM   13  C19 ESR  3412      -2.612  43.132 225.760  1.00 20.00     0.006 C 
HETATM   14  C24 ESR  3412      -5.089  39.899 227.984  1.00 20.00     0.013 C 
HETATM   15  C25 ESR  3412      -6.484  40.215 227.350  1.00 20.00     0.079 C 
HETATM   16  C26 ESR  3412      -6.188  41.178 226.090  1.00 20.00     0.135 C 
HETATM   17  C27 ESR  3412      -4.090  40.348 224.956  1.00 20.00     0.024 C 
HETATM   18  O1  ESR  3412       2.650  44.422 229.715  1.00 20.00    -0.298 OA
HETATM   19  C18 ESR  3412      -4.226  43.006 225.690  1.00 20.00     0.017 C 
HETATM   20  O26 ESR  3412      -6.987  41.606 225.376  1.00 20.00    -0.297 OA
ENDROOT
TORSDOF 0
ENDMDL
MODEL 6
REMARK VINA RESULT:      -6.4      1.560      6.947
REMARK  0 active torsions:
REMARK  status: ('A' for Active; 'I' for Inactive)
ROOT
HETATM    1  C1  ESR  3412      -0.450  34.222 230.332  1.00 20.00     0.127 C 
HETATM    2  C2  ESR  3412       0.211  35.530 230.782  1.00 20.00     0.083 C 
HETATM    3  C3  ESR  3412       0.132  35.893 232.247  1.00 20.00    -0.003 C 
HETATM    4  C4  ESR  3412       0.481  34.596 233.205  1.00 20.00    -0.005 C 
HETATM    5  C5  ESR  3412      -0.569  33.382 232.907  1.00 20.00     0.013 C 
HETATM    6  C6  ESR  3412      -0.456  32.987 231.385  1.00 20.00     0.079 C 
HETATM    7  C10 ESR  3412       1.110  37.066 232.480  1.00 20.00     0.006 C 
HETATM    8  C11 ESR  3412       1.121  37.520 233.984  1.00 20.00     0.006 C 
HETATM    9  C12 ESR  3412       1.508  36.290 234.950  1.00 20.00    -0.005 C 
HETATM   10  C13 ESR  3412       0.399  35.042 234.757  1.00 20.00    -0.006 C 
HETATM   11  C16 ESR  3412       1.524  36.755 236.460  1.00 20.00     0.006 C 
HETATM   12  C17 ESR  3412       1.882  35.610 237.470  1.00 20.00     0.021 C 
HETATM   13  C19 ESR  3412       0.776  33.760 235.778  1.00 20.00     0.006 C 
HETATM   14  C24 ESR  3412       2.517  37.913 236.896  1.00 20.00     0.013 C 
HETATM   15  C25 ESR  3412       2.210  37.875 238.431  1.00 20.00     0.079 C 
HETATM   16  C26 ESR  3412       1.828  36.344 238.766  1.00 20.00     0.135 C 
HETATM   17  C27 ESR  3412       3.360  34.851 237.425  1.00 20.00     0.024 C 
HETATM   18  O1  ESR  3412      -0.902  34.184 229.297  1.00 20.00    -0.298 OA
HETATM   19  C18 ESR  3412       0.635  34.448 237.238  1.00 20.00     0.017 C 
HETATM   20  O26 ESR  3412       1.551  35.940 239.810  1.00 20.00    -0.297 OA
ENDROOT
TORSDOF 0
ENDMDL
MODEL 7
REMARK VINA RESULT:      -6.4      8.993     11.359
REMARK  0 active torsions:
REMARK  status: ('A' for Active; 'I' for Inactive)
ROOT
HETATM    1  C1  ESR  3412       0.045  43.238 229.550  1.00 20.00     0.127 C 
HETATM    2  C2  ESR  3412      -1.078  42.233 229.833  1.00 20.00     0.083 C 
HETATM    3  C3  ESR  3412      -2.289  42.257 228.929  1.00 20.00    -0.003 C 
HETATM    4  C4  ESR  3412      -1.850  42.349 227.342  1.00 20.00    -0.005 C 
HETATM    5  C5  ESR  3412      -0.975  43.702 227.081  1.00 20.00     0.013 C 
HETATM    6  C6  ESR  3412       0.303  43.654 228.003  1.00 20.00     0.079 C 
HETATM    7  C10 ESR  3412      -3.108  40.982 229.232  1.00 20.00     0.006 C 
HETATM    8  C11 ESR  3412      -4.393  40.894 228.332  1.00 20.00     0.006 C 
HETATM    9  C12 ESR  3412      -4.002  40.930 226.770  1.00 20.00    -0.005 C 
HETATM   10  C13 ESR  3412      -3.180  42.354 226.421  1.00 20.00    -0.006 C 
HETATM   11  C16 ESR  3412      -5.298  40.835 225.871  1.00 20.00     0.006 C 
HETATM   12  C17 ESR  3412      -5.004  40.876 224.332  1.00 20.00     0.021 C 
HETATM   13  C19 ESR  3412      -2.786  42.418 224.787  1.00 20.00     0.006 C 
HETATM   14  C24 ESR  3412      -6.231  39.558 226.003  1.00 20.00     0.013 C 
HETATM   15  C25 ESR  3412      -7.234  39.922 224.858  1.00 20.00     0.079 C 
HETATM   16  C26 ESR  3412      -6.380  40.757 223.773  1.00 20.00     0.135 C 
HETATM   17  C27 ESR  3412      -4.099  39.692 223.594  1.00 20.00     0.024 C 
HETATM   18  O1  ESR  3412       0.631  43.640 230.429  1.00 20.00    -0.298 OA
HETATM   19  C18 ESR  3412      -4.250  42.403 224.094  1.00 20.00     0.017 C 
HETATM   20  O26 ESR  3412      -6.795  41.183 222.784  1.00 20.00    -0.297 OA
ENDROOT
TORSDOF 0
ENDMDL
MODEL 8
REMARK VINA RESULT:      -6.3      2.108      7.161
REMARK  0 active torsions:
REMARK  status: ('A' for Active; 'I' for Inactive)
ROOT
HETATM    1  C1  ESR  3412      -0.639  33.003 229.562  1.00 20.00     0.127 C 
HETATM    2  C2  ESR  3412       0.043  34.369 229.707  1.00 20.00     0.083 C 
HETATM    3  C3  ESR  3412      -0.155  35.123 231.001  1.00 20.00    -0.003 C 
HETATM    4  C4  ESR  3412       0.036  34.132 232.306  1.00 20.00    -0.005 C 
HETATM    5  C5  ESR  3412      -1.042  32.908 232.242  1.00 20.00     0.013 C 
HETATM    6  C6  ESR  3412      -0.807  32.106 230.905  1.00 20.00     0.079 C 
HETATM    7  C10 ESR  3412       0.856  36.291 231.007  1.00 20.00     0.006 C 
HETATM    8  C11 ESR  3412       0.749  37.141 232.324  1.00 20.00     0.006 C 
HETATM    9  C12 ESR  3412       0.980  36.217 233.623  1.00 20.00    -0.005 C 
HETATM   10  C13 ESR  3412      -0.168  34.990 233.661  1.00 20.00    -0.006 C 
HETATM   11  C16 ESR  3412       0.877  37.079 234.943  1.00 20.00     0.006 C 
HETATM   12  C17 ESR  3412       1.080  36.249 236.257  1.00 20.00     0.021 C 
HETATM   13  C19 ESR  3412       0.045  34.031 235.026  1.00 20.00     0.006 C 
HETATM   14  C24 ESR  3412       1.883  38.289 235.149  1.00 20.00     0.013 C 
HETATM   15  C25 ESR  3412       1.431  38.682 236.595  1.00 20.00     0.079 C 
HETATM   16  C26 ESR  3412       0.942  37.312 237.292  1.00 20.00     0.135 C 
HETATM   17  C27 ESR  3412       2.515  35.472 236.575  1.00 20.00     0.024 C 
HETATM   18  O1  ESR  3412      -0.993  32.692 228.536  1.00 20.00    -0.298 OA
HETATM   19  C18 ESR  3412      -0.197  35.098 236.221  1.00 20.00     0.017 C 
HETATM   20  O26 ESR  3412       0.548  37.218 238.372  1.00 20.00    -0.297 OA
ENDROOT
TORSDOF 0
ENDMDL
MODEL 9
REMARK VINA RESULT:      -6.1      1.731      2.434
REMARK  0 active torsions:
REMARK  status: ('A' for Active; 'I' for Inactive)
ROOT
HETATM    1  C1  ESR  3412       3.350  34.469 238.344  1.00 20.00     0.127 C 
HETATM    2  C2  ESR  3412       2.807  33.443 237.342  1.00 20.00     0.083 C 
HETATM    3  C3  ESR  3412       1.676  33.873 236.436  1.00 20.00    -0.003 C 
HETATM    4  C4  ESR  3412       1.960  35.364 235.789  1.00 20.00    -0.005 C 
HETATM    5  C5  ESR  3412       2.127  36.468 236.980  1.00 20.00     0.013 C 
HETATM    6  C6  ESR  3412       3.329  36.030 237.901  1.00 20.00     0.079 C 
HETATM    7  C10 ESR  3412       1.527  32.787 235.347  1.00 20.00     0.006 C 
HETATM    8  C11 ESR  3412       0.381  33.139 234.332  1.00 20.00     0.006 C 
HETATM    9  C12 ESR  3412       0.648  34.569 233.640  1.00 20.00    -0.005 C 
HETATM   10  C13 ESR  3412       0.732  35.766 234.817  1.00 20.00    -0.006 C 
HETATM   11  C16 ESR  3412      -0.505  34.915 232.616  1.00 20.00     0.006 C 
HETATM   12  C17 ESR  3412      -0.325  36.300 231.905  1.00 20.00     0.021 C 
HETATM   13  C19 ESR  3412       0.987  37.269 234.107  1.00 20.00     0.006 C 
HETATM   14  C24 ESR  3412      -0.763  33.938 231.392  1.00 20.00     0.013 C 
HETATM   15  C25 ESR  3412      -1.869  34.788 230.685  1.00 20.00     0.079 C 
HETATM   16  C26 ESR  3412      -1.525  36.328 231.023  1.00 20.00     0.135 C 
HETATM   17  C27 ESR  3412       0.982  36.603 230.923  1.00 20.00     0.024 C 
HETATM   18  O1  ESR  3412       3.730  34.090 239.338  1.00 20.00    -0.298 OA
HETATM   19  C18 ESR  3412      -0.344  37.434 233.198  1.00 20.00     0.017 C 
HETATM   20  O26 ESR  3412      -2.127  37.241 230.656  1.00 20.00    -0.297 OA
ENDROOT
TORSDOF 0
ENDMDL
