MODEL 1
REMARK VINA RESULT:      -8.0      0.000      0.000
REMARK  5 active torsions:
REMARK  status: ('A' for Active; 'I' for Inactive)
REMARK    1  A    between atoms: C15_2  and  S1_1 
REMARK    2  A    between atoms: N3_25  and  S1_1 
REMARK    3  A    between atoms: C12_5  and  N2_8 
REMARK    4  A    between atoms: C3_9  and  C5_10 
REMARK    5  A    between atoms: C1_18  and  C4_19 
ROOT
HETATM    1  N2  CEL  2427      -3.033  40.787 228.611  1.00 20.00    -0.255 N 
HETATM    2  C3  CEL  2427      -3.083  39.605 229.293  1.00 20.00     0.069 A 
HETATM    3  C2  CEL  2427      -4.258  38.969 228.901  1.00 20.00     0.068 A 
HETATM    4  C1  CEL  2427      -4.883  39.880 228.057  1.00 20.00     0.135 A 
HETATM    5  N1  CEL  2427      -4.151  40.965 227.882  1.00 20.00    -0.289 N 
ATOM      6  H1  CEL  2427      -4.386  41.775 227.310  1.00  0.00     0.187 HD
ENDROOT
BRANCH   1   7
HETATM    7  C12 CEL  2427      -2.101  41.908 228.586  1.00 20.00     0.057 A 
HETATM    8  C13 CEL  2427      -1.922  42.560 227.395  1.00 20.00     0.033 A 
HETATM    9  C14 CEL  2427      -0.967  43.564 227.322  1.00 20.00     0.027 A 
HETATM   10  C15 CEL  2427      -0.234  43.892 228.439  1.00 20.00     0.079 A 
HETATM   11  C16 CEL  2427      -0.412  43.249 229.647  1.00 20.00     0.027 A 
HETATM   12  C17 CEL  2427      -1.373  42.233 229.712  1.00 20.00     0.033 A 
BRANCH  10  13
HETATM   13  S1  CEL  2427       1.076  45.103 228.337  1.00 20.00     0.256 S 
HETATM   14  O1  CEL  2427       0.461  46.348 228.727  1.00 20.00    -0.201 OA
HETATM   15  O2  CEL  2427       2.137  44.660 229.147  1.00 20.00    -0.201 OA
BRANCH  13  16
HETATM   16  N3  CEL  2427       1.560  45.179 226.826  1.00 20.00    -0.324 N 
ATOM     17  H32 CEL  2427       1.612  44.388 226.185  1.00  0.00     0.169 HD
ATOM     18  H31 CEL  2427       1.803  46.149 226.620  1.00  0.00     0.169 HD
ENDBRANCH  13  16
ENDBRANCH  10  13
ENDBRANCH   1   7
BRANCH   2  19
HETATM   19  C5  CEL  2427      -2.095  38.966 230.154  1.00 20.00    -0.007 A 
HETATM   20  C10 CEL  2427      -1.066  38.264 229.545  1.00 20.00     0.014 A 
HETATM   21  C9  CEL  2427      -0.125  37.611 230.307  1.00 20.00     0.007 A 
HETATM   22  C8  CEL  2427      -0.166  37.693 231.680  1.00 20.00    -0.062 A 
HETATM   23  C11 CEL  2427       0.870  36.967 232.498  1.00 20.00     0.048 C 
HETATM   24  C7  CEL  2427      -1.148  38.464 232.294  1.00 20.00     0.007 A 
HETATM   25  C6  CEL  2427      -2.116  39.061 231.530  1.00 20.00     0.014 A 
ENDBRANCH   2  19
BRANCH   4  26
HETATM   26  C4  CEL  2427      -6.214  39.747 227.402  1.00 20.00     0.434 C 
HETATM   27  F3  CEL  2427      -6.938  40.835 227.410  1.00 20.00    -0.165 F 
HETATM   28  F2  CEL  2427      -6.945  38.733 227.852  1.00 20.00    -0.165 F 
HETATM   29  F1  CEL  2427      -6.041  39.439 226.122  1.00 20.00    -0.165 F 
ENDBRANCH   4  26
TORSDOF 5
ENDMDL
MODEL 2
REMARK VINA RESULT:      -7.7      4.061      6.011
REMARK  5 active torsions:
REMARK  status: ('A' for Active; 'I' for Inactive)
REMARK    1  A    between atoms: C15_2  and  S1_1 
REMARK    2  A    between atoms: N3_25  and  S1_1 
REMARK    3  A    between atoms: C12_5  and  N2_8 
REMARK    4  A    between atoms: C3_9  and  C5_10 
REMARK    5  A    between atoms: C1_18  and  C4_19 
ROOT
HETATM    1  N2  CEL  2427      -2.391  41.815 228.230  1.00 20.00    -0.255 N 
HETATM    2  C3  CEL  2427      -1.410  42.620 227.725  1.00 20.00     0.069 A 
HETATM    3  C2  CEL  2427      -1.974  43.313 226.658  1.00 20.00     0.068 A 
HETATM    4  C1  CEL  2427      -3.259  42.795 226.546  1.00 20.00     0.135 A 
HETATM    5  N1  CEL  2427      -3.509  41.903 227.485  1.00 20.00    -0.289 N 
ATOM      6  H1  CEL  2427      -4.376  41.383 227.620  1.00  0.00     0.187 HD
ENDROOT
BRANCH   1   7
HETATM    7  C12 CEL  2427      -2.449  40.837 229.309  1.00 20.00     0.057 A 
HETATM    8  C13 CEL  2427      -3.666  40.285 229.603  1.00 20.00     0.033 A 
HETATM    9  C14 CEL  2427      -3.765  39.428 230.690  1.00 20.00     0.027 A 
HETATM   10  C15 CEL  2427      -2.646  39.140 231.436  1.00 20.00     0.079 A 
HETATM   11  C16 CEL  2427      -1.411  39.682 231.144  1.00 20.00     0.027 A 
HETATM   12  C17 CEL  2427      -1.320  40.551 230.050  1.00 20.00     0.033 A 
BRANCH  10  13
HETATM   13  S1  CEL  2427      -2.773  38.129 232.904  1.00 20.00     0.256 S 
HETATM   14  O1  CEL  2427      -4.126  38.315 233.366  1.00 20.00    -0.201 OA
HETATM   15  O2  CEL  2427      -2.416  36.815 232.555  1.00 20.00    -0.201 OA
BRANCH  13  16
HETATM   16  N3  CEL  2427      -1.745  38.689 233.979  1.00 20.00    -0.324 N 
ATOM     17  H32 CEL  2427      -0.871  38.237 234.247  1.00  0.00     0.169 HD
ATOM     18  H31 CEL  2427      -2.115  39.567 234.342  1.00  0.00     0.169 HD
ENDBRANCH  13  16
ENDBRANCH  10  13
ENDBRANCH   1   7
BRANCH   2  19
HETATM   19  C5  CEL  2427      -0.065  42.896 228.217  1.00 20.00    -0.007 A 
HETATM   20  C10 CEL  2427       0.064  43.765 229.290  1.00 20.00     0.014 A 
HETATM   21  C9  CEL  2427       1.309  44.090 229.773  1.00 20.00     0.007 A 
HETATM   22  C8  CEL  2427       2.436  43.516 229.231  1.00 20.00    -0.062 A 
HETATM   23  C11 CEL  2427       3.793  43.888 229.771  1.00 20.00     0.048 C 
HETATM   24  C7  CEL  2427       2.307  42.581 228.209  1.00 20.00     0.007 A 
HETATM   25  C6  CEL  2427       1.067  42.309 227.693  1.00 20.00     0.014 A 
ENDBRANCH   2  19
BRANCH   4  26
HETATM   26  C4  CEL  2427      -4.288  43.130 225.521  1.00 20.00     0.434 C 
HETATM   27  F3  CEL  2427      -3.885  43.003 224.283  1.00 20.00    -0.165 F 
HETATM   28  F2  CEL  2427      -4.849  44.323 225.678  1.00 20.00    -0.165 F 
HETATM   29  F1  CEL  2427      -5.317  42.301 225.650  1.00 20.00    -0.165 F 
ENDBRANCH   4  26
TORSDOF 5
ENDMDL
MODEL 3
REMARK VINA RESULT:      -7.7     10.063     12.485
REMARK  5 active torsions:
REMARK  status: ('A' for Active; 'I' for Inactive)
REMARK    1  A    between atoms: C15_2  and  S1_1 
REMARK    2  A    between atoms: N3_25  and  S1_1 
REMARK    3  A    between atoms: C12_5  and  N2_8 
REMARK    4  A    between atoms: C3_9  and  C5_10 
REMARK    5  A    between atoms: C1_18  and  C4_19 
ROOT
HETATM    1  N2  CEL  2427       1.056  36.690 237.933  1.00 20.00    -0.255 N 
HETATM    2  C3  CEL  2427       1.639  37.027 236.744  1.00 20.00     0.069 A 
HETATM    3  C2  CEL  2427       2.789  37.747 237.055  1.00 20.00     0.068 A 
HETATM    4  C1  CEL  2427       2.762  37.865 238.440  1.00 20.00     0.135 A 
HETATM    5  N1  CEL  2427       1.729  37.233 238.964  1.00 20.00    -0.289 N 
ATOM      6  H1  CEL  2427       1.490  37.168 239.953  1.00  0.00     0.187 HD
ENDROOT
BRANCH   1   7
HETATM    7  C12 CEL  2427      -0.160  35.976 238.302  1.00 20.00     0.057 A 
HETATM    8  C13 CEL  2427      -1.357  36.516 237.917  1.00 20.00     0.033 A 
HETATM    9  C14 CEL  2427      -2.530  35.910 238.343  1.00 20.00     0.027 A 
HETATM   10  C15 CEL  2427      -2.470  34.780 239.126  1.00 20.00     0.079 A 
HETATM   11  C16 CEL  2427      -1.269  34.220 239.512  1.00 20.00     0.027 A 
HETATM   12  C17 CEL  2427      -0.090  34.841 239.085  1.00 20.00     0.033 A 
BRANCH  10  13
HETATM   13  S1  CEL  2427      -3.965  34.050 239.777  1.00 20.00     0.256 S 
HETATM   14  O1  CEL  2427      -4.950  34.235 238.739  1.00 20.00    -0.201 OA
HETATM   15  O2  CEL  2427      -3.679  32.718 240.123  1.00 20.00    -0.201 OA
BRANCH  13  16
HETATM   16  N3  CEL  2427      -4.381  34.858 241.080  1.00 20.00    -0.324 N 
ATOM     17  H32 CEL  2427      -4.247  35.859 241.218  1.00  0.00     0.169 HD
ATOM     18  H31 CEL  2427      -4.801  34.202 241.738  1.00  0.00     0.169 HD
ENDBRANCH  13  16
ENDBRANCH  10  13
ENDBRANCH   1   7
BRANCH   2  19
HETATM   19  C5  CEL  2427       1.304  36.634 235.380  1.00 20.00    -0.007 A 
HETATM   20  C10 CEL  2427       1.438  37.589 234.383  1.00 20.00     0.014 A 
HETATM   21  C9  CEL  2427       1.103  37.286 233.084  1.00 20.00     0.007 A 
HETATM   22  C8  CEL  2427       0.683  36.018 232.753  1.00 20.00    -0.062 A 
HETATM   23  C11 CEL  2427       0.316  35.707 231.325  1.00 20.00     0.048 C 
HETATM   24  C7  CEL  2427       0.626  35.035 233.735  1.00 20.00     0.007 A 
HETATM   25  C6  CEL  2427       0.903  35.361 235.037  1.00 20.00     0.014 A 
ENDBRANCH   2  19
BRANCH   4  26
HETATM   26  C4  CEL  2427       3.722  38.605 239.308  1.00 20.00     0.434 C 
HETATM   27  F3  CEL  2427       4.844  37.976 239.540  1.00 20.00    -0.165 F 
HETATM   28  F2  CEL  2427       3.208  39.022 240.460  1.00 20.00    -0.165 F 
HETATM   29  F1  CEL  2427       4.064  39.740 238.710  1.00 20.00    -0.165 F 
ENDBRANCH   4  26
TORSDOF 5
ENDMDL
MODEL 4
REMARK VINA RESULT:      -7.6      9.677     12.014
REMARK  5 active torsions:
REMARK  status: ('A' for Active; 'I' for Inactive)
REMARK    1  A    between atoms: C15_2  and  S1_1 
REMARK    2  A    between atoms: N3_25  and  S1_1 
REMARK    3  A    between atoms: C12_5  and  N2_8 
REMARK    4  A    between atoms: C3_9  and  C5_10 
REMARK    5  A    between atoms: C1_18  and  C4_19 
ROOT
HETATM    1  N2  CEL  2427       1.501  36.146 236.672  1.00 20.00    -0.255 N 
HETATM    2  C3  CEL  2427       0.902  36.728 235.591  1.00 20.00     0.069 A 
HETATM    3  C2  CEL  2427       0.607  38.039 235.957  1.00 20.00     0.068 A 
HETATM    4  C1  CEL  2427       0.982  38.120 237.293  1.00 20.00     0.135 A 
HETATM    5  N1  CEL  2427       1.517  36.992 237.719  1.00 20.00    -0.289 N 
ATOM      6  H1  CEL  2427       1.872  36.800 238.655  1.00  0.00     0.187 HD
ENDROOT
BRANCH   1   7
HETATM    7  C12 CEL  2427       2.016  34.813 236.953  1.00 20.00     0.057 A 
HETATM    8  C13 CEL  2427       1.724  34.262 238.172  1.00 20.00     0.033 A 
HETATM    9  C14 CEL  2427       2.286  33.037 238.502  1.00 20.00     0.027 A 
HETATM   10  C15 CEL  2427       3.108  32.398 237.603  1.00 20.00     0.079 A 
HETATM   11  C16 CEL  2427       3.402  32.938 236.367  1.00 20.00     0.027 A 
HETATM   12  C17 CEL  2427       2.837  34.177 236.043  1.00 20.00     0.033 A 
BRANCH  10  13
HETATM   13  S1  CEL  2427       3.931  30.876 238.052  1.00 20.00     0.256 S 
HETATM   14  O1  CEL  2427       2.920  30.091 238.716  1.00 20.00    -0.201 OA
HETATM   15  O2  CEL  2427       4.474  30.319 236.881  1.00 20.00    -0.201 OA
BRANCH  13  16
HETATM   16  N3  CEL  2427       5.104  31.230 239.063  1.00 20.00    -0.324 N 
ATOM     17  H32 CEL  2427       4.976  31.548 240.023  1.00  0.00     0.169 HD
ATOM     18  H31 CEL  2427       5.991  31.083 238.582  1.00  0.00     0.169 HD
ENDBRANCH  13  16
ENDBRANCH  10  13
ENDBRANCH   1   7
BRANCH   2  19
HETATM   19  C5  CEL  2427       0.705  36.229 234.234  1.00 20.00    -0.007 A 
HETATM   20  C10 CEL  2427       1.119  37.035 233.185  1.00 20.00     0.014 A 
HETATM   21  C9  CEL  2427       0.927  36.632 231.884  1.00 20.00     0.007 A 
HETATM   22  C8  CEL  2427       0.371  35.402 231.613  1.00 20.00    -0.062 A 
HETATM   23  C11 CEL  2427       0.164  34.980 230.181  1.00 20.00     0.048 C 
HETATM   24  C7  CEL  2427       0.030  34.556 232.663  1.00 20.00     0.007 A 
HETATM   25  C6  CEL  2427       0.168  34.991 233.955  1.00 20.00     0.014 A 
ENDBRANCH   2  19
BRANCH   4  26
HETATM   26  C4  CEL  2427       0.824  39.283 238.211  1.00 20.00     0.434 C 
HETATM   27  F3  CEL  2427       1.691  39.329 239.189  1.00 20.00    -0.165 F 
HETATM   28  F2  CEL  2427      -0.401  39.426 238.706  1.00 20.00    -0.165 F 
HETATM   29  F1  CEL  2427       0.996  40.407 237.525  1.00 20.00    -0.165 F 
ENDBRANCH   4  26
TORSDOF 5
ENDMDL
MODEL 5
REMARK VINA RESULT:      -7.5      7.706     10.216
REMARK  5 active torsions:
REMARK  status: ('A' for Active; 'I' for Inactive)
REMARK    1  A    between atoms: C15_2  and  S1_1 
REMARK    2  A    between atoms: N3_25  and  S1_1 
REMARK    3  A    between atoms: C12_5  and  N2_8 
REMARK    4  A    between atoms: C3_9  and  C5_10 
REMARK    5  A    between atoms: C1_18  and  C4_19 
ROOT
HETATM    1  N2  CEL  2427       1.306  36.585 235.642  1.00 20.00    -0.255 N 
HETATM    2  C3  CEL  2427       1.821  35.837 236.663  1.00 20.00     0.069 A 
HETATM    3  C2  CEL  2427       2.003  36.703 237.738  1.00 20.00     0.068 A 
HETATM    4  C1  CEL  2427       1.655  37.954 237.241  1.00 20.00     0.135 A 
HETATM    5  N1  CEL  2427       1.238  37.884 235.991  1.00 20.00    -0.289 N 
ATOM      6  H1  CEL  2427       0.926  38.659 235.406  1.00  0.00     0.187 HD
ENDROOT
BRANCH   1   7
HETATM    7  C12 CEL  2427       0.924  36.299 234.265  1.00 20.00     0.057 A 
HETATM    8  C13 CEL  2427       0.362  35.079 234.001  1.00 20.00     0.033 A 
HETATM    9  C14 CEL  2427       0.083  34.745 232.683  1.00 20.00     0.027 A 
HETATM   10  C15 CEL  2427       0.360  35.642 231.678  1.00 20.00     0.079 A 
HETATM   11  C16 CEL  2427       0.917  36.880 231.933  1.00 20.00     0.027 A 
HETATM   12  C17 CEL  2427       1.202  37.207 233.263  1.00 20.00     0.033 A 
BRANCH  10  13
HETATM   13  S1  CEL  2427       0.112  35.189 229.967  1.00 20.00     0.256 S 
HETATM   14  O1  CEL  2427       1.209  35.802 229.259  1.00 20.00    -0.201 OA
HETATM   15  O2  CEL  2427       0.041  33.787 229.899  1.00 20.00    -0.201 OA
BRANCH  13  16
HETATM   16  N3  CEL  2427      -1.268  35.813 229.487  1.00 20.00    -0.324 N 
ATOM     17  H32 CEL  2427      -1.405  36.348 228.630  1.00  0.00     0.169 HD
ATOM     18  H31 CEL  2427      -1.978  35.583 230.183  1.00  0.00     0.169 HD
ENDBRANCH  13  16
ENDBRANCH  10  13
ENDBRANCH   1   7
BRANCH   2  19
HETATM   19  C5  CEL  2427       2.028  34.398 236.771  1.00 20.00    -0.007 A 
HETATM   20  C10 CEL  2427       3.236  33.885 236.325  1.00 20.00     0.014 A 
HETATM   21  C9  CEL  2427       3.474  32.531 236.370  1.00 20.00     0.007 A 
HETATM   22  C8  CEL  2427       2.537  31.679 236.906  1.00 20.00    -0.062 A 
HETATM   23  C11 CEL  2427       2.813  30.199 236.942  1.00 20.00     0.048 C 
HETATM   24  C7  CEL  2427       1.357  32.198 237.430  1.00 20.00     0.007 A 
HETATM   25  C6  CEL  2427       1.103  33.540 237.327  1.00 20.00     0.014 A 
ENDBRANCH   2  19
BRANCH   4  26
HETATM   26  C4  CEL  2427       1.728  39.265 237.946  1.00 20.00     0.434 C 
HETATM   27  F3  CEL  2427       2.933  39.624 238.306  1.00 20.00    -0.165 F 
HETATM   28  F2  CEL  2427       0.911  39.371 238.988  1.00 20.00    -0.165 F 
HETATM   29  F1  CEL  2427       1.295  40.222 237.134  1.00 20.00    -0.165 F 
ENDBRANCH   4  26
TORSDOF 5
ENDMDL
MODEL 6
REMARK VINA RESULT:      -7.5      4.113      6.121
REMARK  5 active torsions:
REMARK  status: ('A' for Active; 'I' for Inactive)
REMARK    1  A    between atoms: C15_2  and  S1_1 
REMARK    2  A    between atoms: N3_25  and  S1_1 
REMARK    3  A    between atoms: C12_5  and  N2_8 
REMARK    4  A    between atoms: C3_9  and  C5_10 
REMARK    5  A    between atoms: C1_18  and  C4_19 
ROOT
HETATM    1  N2  CEL  2427      -2.008  40.491 229.317  1.00 20.00    -0.255 N 
HETATM    2  C3  CEL  2427      -1.482  41.597 228.713  1.00 20.00     0.069 A 
HETATM    3  C2  CEL  2427      -2.490  42.133 227.916  1.00 20.00     0.068 A 
HETATM    4  C1  CEL  2427      -3.545  41.236 228.039  1.00 20.00     0.135 A 
HETATM    5  N1  CEL  2427      -3.259  40.257 228.876  1.00 20.00    -0.289 N 
ATOM      6  H1  CEL  2427      -3.864  39.479 229.137  1.00  0.00     0.187 HD
ENDROOT
BRANCH   1   7
HETATM    7  C12 CEL  2427      -1.483  39.485 230.231  1.00 20.00     0.057 A 
HETATM    8  C13 CEL  2427      -0.664  38.519 229.711  1.00 20.00     0.033 A 
HETATM    9  C14 CEL  2427      -0.232  37.493 230.541  1.00 20.00     0.027 A 
HETATM   10  C15 CEL  2427      -0.621  37.473 231.860  1.00 20.00     0.079 A 
HETATM   11  C16 CEL  2427      -1.438  38.446 232.398  1.00 20.00     0.027 A 
HETATM   12  C17 CEL  2427      -1.875  39.474 231.555  1.00 20.00     0.033 A 
BRANCH  10  13
HETATM   13  S1  CEL  2427      -0.169  36.103 232.915  1.00 20.00     0.256 S 
HETATM   14  O1  CEL  2427      -1.385  35.753 233.608  1.00 20.00    -0.201 OA
HETATM   15  O2  CEL  2427       0.388  35.100 232.103  1.00 20.00    -0.201 OA
BRANCH  13  16
HETATM   16  N3  CEL  2427       0.923  36.616 233.948  1.00 20.00    -0.324 N 
ATOM     17  H32 CEL  2427       1.261  36.093 234.755  1.00  0.00     0.169 HD
ATOM     18  H31 CEL  2427       1.218  37.549 233.658  1.00  0.00     0.169 HD
ENDBRANCH  13  16
ENDBRANCH  10  13
ENDBRANCH   1   7
BRANCH   2  19
HETATM   19  C5  CEL  2427      -0.199  42.263 228.908  1.00 20.00    -0.007 A 
HETATM   20  C10 CEL  2427      -0.138  43.284 229.844  1.00 20.00     0.014 A 
HETATM   21  C9  CEL  2427       1.036  43.971 230.046  1.00 20.00     0.007 A 
HETATM   22  C8  CEL  2427       2.174  43.617 229.358  1.00 20.00    -0.062 A 
HETATM   23  C11 CEL  2427       3.450  44.385 229.588  1.00 20.00     0.048 C 
HETATM   24  C7  CEL  2427       2.138  42.541 228.478  1.00 20.00     0.007 A 
HETATM   25  C6  CEL  2427       0.950  41.901 228.238  1.00 20.00     0.014 A 
ENDBRANCH   2  19
BRANCH   4  26
HETATM   26  C4  CEL  2427      -4.861  41.281 227.341  1.00 20.00     0.434 C 
HETATM   27  F3  CEL  2427      -5.854  40.762 228.015  1.00 20.00    -0.165 F 
HETATM   28  F2  CEL  2427      -4.848  40.767 226.116  1.00 20.00    -0.165 F 
HETATM   29  F1  CEL  2427      -5.197  42.547 227.125  1.00 20.00    -0.165 F 
ENDBRANCH   4  26
TORSDOF 5
ENDMDL
MODEL 7
REMARK VINA RESULT:      -7.2      7.810     10.406
REMARK  5 active torsions:
REMARK  status: ('A' for Active; 'I' for Inactive)
REMARK    1  A    between atoms: C15_2  and  S1_1 
REMARK    2  A    between atoms: N3_25  and  S1_1 
REMARK    3  A    between atoms: C12_5  and  N2_8 
REMARK    4  A    between atoms: C3_9  and  C5_10 
REMARK    5  A    between atoms: C1_18  and  C4_19 
ROOT
HETATM    1  N2  CEL  2427       1.865  37.114 236.376  1.00 20.00    -0.255 N 
HETATM    2  C3  CEL  2427       2.477  35.968 236.799  1.00 20.00     0.069 A 
HETATM    3  C2  CEL  2427       3.183  36.296 237.953  1.00 20.00     0.068 A 
HETATM    4  C1  CEL  2427       3.008  37.668 238.090  1.00 20.00     0.135 A 
HETATM    5  N1  CEL  2427       2.220  38.156 237.151  1.00 20.00    -0.289 N 
ATOM      6  H1  CEL  2427       1.936  39.129 237.035  1.00  0.00     0.187 HD
ENDROOT
BRANCH   1   7
HETATM    7  C12 CEL  2427       1.019  37.455 235.240  1.00 20.00     0.057 A 
HETATM    8  C13 CEL  2427      -0.256  37.878 235.500  1.00 20.00     0.033 A 
HETATM    9  C14 CEL  2427      -1.112  38.113 234.433  1.00 20.00     0.027 A 
HETATM   10  C15 CEL  2427      -0.664  37.930 233.146  1.00 20.00     0.079 A 
HETATM   11  C16 CEL  2427       0.622  37.513 232.870  1.00 20.00     0.027 A 
HETATM   12  C17 CEL  2427       1.478  37.273 233.950  1.00 20.00     0.033 A 
BRANCH  10  13
HETATM   13  S1  CEL  2427      -1.782  38.117 231.764  1.00 20.00     0.256 S 
HETATM   14  O1  CEL  2427      -1.084  37.540 230.642  1.00 20.00    -0.201 OA
HETATM   15  O2  CEL  2427      -3.001  37.509 232.110  1.00 20.00    -0.201 OA
BRANCH  13  16
HETATM   16  N3  CEL  2427      -2.014  39.671 231.526  1.00 20.00    -0.324 N 
ATOM     17  H32 CEL  2427      -1.995  40.136 230.619  1.00  0.00     0.169 HD
ATOM     18  H31 CEL  2427      -2.183  40.108 232.433  1.00  0.00     0.169 HD
ENDBRANCH  13  16
ENDBRANCH  10  13
ENDBRANCH   1   7
BRANCH   2  19
HETATM   19  C5  CEL  2427       2.359  34.597 236.314  1.00 20.00    -0.007 A 
HETATM   20  C10 CEL  2427       1.148  34.211 235.762  1.00 20.00     0.014 A 
HETATM   21  C9  CEL  2427       0.967  32.921 235.320  1.00 20.00     0.007 A 
HETATM   22  C8  CEL  2427       2.003  32.017 235.375  1.00 20.00    -0.062 A 
HETATM   23  C11 CEL  2427       1.784  30.606 234.893  1.00 20.00     0.048 C 
HETATM   24  C7  CEL  2427       3.244  32.423 235.853  1.00 20.00     0.007 A 
HETATM   25  C6  CEL  2427       3.398  33.692 236.347  1.00 20.00     0.014 A 
ENDBRANCH   2  19
BRANCH   4  26
HETATM   26  C4  CEL  2427       3.605  38.562 239.123  1.00 20.00     0.434 C 
HETATM   27  F3  CEL  2427       2.867  38.735 240.188  1.00 20.00    -0.165 F 
HETATM   28  F2  CEL  2427       3.993  39.746 238.662  1.00 20.00    -0.165 F 
HETATM   29  F1  CEL  2427       4.741  38.028 239.556  1.00 20.00    -0.165 F 
ENDBRANCH   4  26
TORSDOF 5
ENDMDL
MODEL 8
REMARK VINA RESULT:      -7.0      1.699      2.587
REMARK  5 active torsions:
REMARK  status: ('A' for Active; 'I' for Inactive)
REMARK    1  A    between atoms: C15_2  and  S1_1 
REMARK    2  A    between atoms: N3_25  and  S1_1 
REMARK    3  A    between atoms: C12_5  and  N2_8 
REMARK    4  A    between atoms: C3_9  and  C5_10 
REMARK    5  A    between atoms: C1_18  and  C4_19 
ROOT
HETATM    1  N2  CEL  2427      -3.345  41.654 227.904  1.00 20.00    -0.255 N 
HETATM    2  C3  CEL  2427      -3.980  40.552 228.402  1.00 20.00     0.069 A 
HETATM    3  C2  CEL  2427      -5.196  40.456 227.732  1.00 20.00     0.068 A 
HETATM    4  C1  CEL  2427      -5.239  41.586 226.923  1.00 20.00     0.135 A 
HETATM    5  N1  CEL  2427      -4.134  42.300 227.024  1.00 20.00    -0.289 N 
ATOM      6  H1  CEL  2427      -3.920  43.168 226.533  1.00  0.00     0.187 HD
ENDROOT
BRANCH   1   7
HETATM    7  C12 CEL  2427      -2.078  42.315 228.190  1.00 20.00     0.057 A 
HETATM    8  C13 CEL  2427      -1.600  42.246 229.471  1.00 20.00     0.033 A 
HETATM    9  C14 CEL  2427      -0.449  42.950 229.792  1.00 20.00     0.027 A 
HETATM   10  C15 CEL  2427       0.193  43.687 228.824  1.00 20.00     0.079 A 
HETATM   11  C16 CEL  2427      -0.273  43.756 227.527  1.00 20.00     0.027 A 
HETATM   12  C17 CEL  2427      -1.438  43.048 227.212  1.00 20.00     0.033 A 
BRANCH  10  13
HETATM   13  S1  CEL  2427       1.612  44.690 229.242  1.00 20.00     0.256 S 
HETATM   14  O1  CEL  2427       2.728  44.036 228.606  1.00 20.00    -0.201 OA
HETATM   15  O2  CEL  2427       1.348  46.006 228.825  1.00 20.00    -0.201 OA
BRANCH  13  16
HETATM   16  N3  CEL  2427       1.787  44.661 230.822  1.00 20.00    -0.324 N 
ATOM     17  H32 CEL  2427       1.362  43.977 231.448  1.00  0.00     0.169 HD
ATOM     18  H31 CEL  2427       2.393  45.438 231.087  1.00  0.00     0.169 HD
ENDBRANCH  13  16
ENDBRANCH  10  13
ENDBRANCH   1   7
BRANCH   2  19
HETATM   19  C5  CEL  2427      -3.511  39.527 229.327  1.00 20.00    -0.007 A 
HETATM   20  C10 CEL  2427      -3.842  39.666 230.666  1.00 20.00     0.014 A 
HETATM   21  C9  CEL  2427      -3.398  38.749 231.590  1.00 20.00     0.007 A 
HETATM   22  C8  CEL  2427      -2.665  37.656 231.186  1.00 20.00    -0.062 A 
HETATM   23  C11 CEL  2427      -2.182  36.665 232.213  1.00 20.00     0.048 C 
HETATM   24  C7  CEL  2427      -2.400  37.469 229.833  1.00 20.00     0.007 A 
HETATM   25  C6  CEL  2427      -2.794  38.419 228.928  1.00 20.00     0.014 A 
ENDBRANCH   2  19
BRANCH   4  26
HETATM   26  C4  CEL  2427      -6.352  42.027 226.036  1.00 20.00     0.434 C 
HETATM   27  F3  CEL  2427      -6.151  41.814 224.762  1.00 20.00    -0.165 F 
HETATM   28  F2  CEL  2427      -6.726  43.289 226.215  1.00 20.00    -0.165 F 
HETATM   29  F1  CEL  2427      -7.450  41.347 226.345  1.00 20.00    -0.165 F 
ENDBRANCH   4  26
TORSDOF 5
ENDMDL
MODEL 9
REMARK VINA RESULT:      -6.9      4.938      6.203
REMARK  5 active torsions:
REMARK  status: ('A' for Active; 'I' for Inactive)
REMARK    1  A    between atoms: C15_2  and  S1_1 
REMARK    2  A    between atoms: N3_25  and  S1_1 
REMARK    3  A    between atoms: C12_5  and  N2_8 
REMARK    4  A    between atoms: C3_9  and  C5_10 
REMARK    5  A    between atoms: C1_18  and  C4_19 
ROOT
HETATM    1  N2  CEL  2427      -1.234  42.444 228.081  1.00 20.00    -0.255 N 
HETATM    2  C3  CEL  2427      -0.479  41.670 228.916  1.00 20.00     0.069 A 
HETATM    3  C2  CEL  2427       0.709  42.362 229.136  1.00 20.00     0.068 A 
HETATM    4  C1  CEL  2427       0.610  43.488 228.326  1.00 20.00     0.135 A 
HETATM    5  N1  CEL  2427      -0.549  43.538 227.698  1.00 20.00    -0.289 N 
ATOM      6  H1  CEL  2427      -0.864  44.261 227.052  1.00  0.00     0.187 HD
ENDROOT
BRANCH   1   7
HETATM    7  C12 CEL  2427      -2.541  42.289 227.456  1.00 20.00     0.057 A 
HETATM    8  C13 CEL  2427      -2.817  43.059 226.358  1.00 20.00     0.033 A 
HETATM    9  C14 CEL  2427      -4.089  43.003 225.807  1.00 20.00     0.027 A 
HETATM   10  C15 CEL  2427      -5.037  42.173 226.360  1.00 20.00     0.079 A 
HETATM   11  C16 CEL  2427      -4.768  41.385 227.460  1.00 20.00     0.027 A 
HETATM   12  C17 CEL  2427      -3.485  41.451 228.015  1.00 20.00     0.033 A 
BRANCH  10  13
HETATM   13  S1  CEL  2427      -6.711  42.170 225.735  1.00 20.00     0.256 S 
HETATM   14  O1  CEL  2427      -6.570  42.186 224.300  1.00 20.00    -0.201 OA
HETATM   15  O2  CEL  2427      -7.371  41.054 226.277  1.00 20.00    -0.201 OA
BRANCH  13  16
HETATM   16  N3  CEL  2427      -7.424  43.500 226.232  1.00 20.00    -0.324 N 
ATOM     17  H32 CEL  2427      -7.152  44.042 227.051  1.00  0.00     0.169 HD
ATOM     18  H31 CEL  2427      -8.190  43.706 225.590  1.00  0.00     0.169 HD
ENDBRANCH  13  16
ENDBRANCH  10  13
ENDBRANCH   1   7
BRANCH   2  19
HETATM   19  C5  CEL  2427      -0.809  40.436 229.620  1.00 20.00    -0.007 A 
HETATM   20  C10 CEL  2427      -1.604  40.532 230.752  1.00 20.00     0.014 A 
HETATM   21  C9  CEL  2427      -1.918  39.406 231.476  1.00 20.00     0.007 A 
HETATM   22  C8  CEL  2427      -1.491  38.168 231.055  1.00 20.00    -0.062 A 
HETATM   23  C11 CEL  2427      -1.841  36.946 231.865  1.00 20.00     0.048 C 
HETATM   24  C7  CEL  2427      -0.762  38.057 229.875  1.00 20.00     0.007 A 
HETATM   25  C6  CEL  2427      -0.402  39.190 229.193  1.00 20.00     0.014 A 
ENDBRANCH   2  19
BRANCH   4  26
HETATM   26  C4  CEL  2427       1.636  44.548 228.116  1.00 20.00     0.434 C 
HETATM   27  F3  CEL  2427       2.344  44.841 229.176  1.00 20.00    -0.165 F 
HETATM   28  F2  CEL  2427       1.163  45.670 227.583  1.00 20.00    -0.165 F 
HETATM   29  F1  CEL  2427       2.509  44.135 227.204  1.00 20.00    -0.165 F 
ENDBRANCH   4  26
TORSDOF 5
ENDMDL
