MODEL 1
REMARK VINA RESULT:      -6.4      0.000      0.000
REMARK  4 active torsions:
REMARK  status: ('A' for Active; 'I' for Inactive)
REMARK    1  A    between atoms: C1_1  and  C6_6 
REMARK    2  A    between atoms: C11_11  and  C2_2 
REMARK    3  A    between atoms: C2_2  and  C3_3 
REMARK    4  A    between atoms: C6_6  and  C8_8 
ROOT
HETATM    1  C8  IBP  4409       0.226  43.879 228.624  1.00 20.00    -0.044 A 
HETATM    2  C9  IBP  4409      -0.233  43.112 229.695  1.00 20.00     0.009 A 
HETATM    3  C10 IBP  4409      -1.343  42.270 229.549  1.00 20.00     0.011 A 
HETATM    4  C11 IBP  4409      -1.998  42.210 228.319  1.00 20.00    -0.040 A 
HETATM    5  C12 IBP  4409      -1.535  42.981 227.268  1.00 20.00     0.011 A 
HETATM    6  C13 IBP  4409      -0.441  43.810 227.413  1.00 20.00     0.009 A 
ENDROOT
BRANCH   1   7
HETATM    7  C6  IBP  4409       1.394  44.787 228.735  1.00 20.00     0.115 C 
HETATM    8  C7  IBP  4409       2.288  44.291 229.863  1.00 20.00     0.026 C 
BRANCH   7   9
HETATM    9  C1  IBP  4409       0.966  46.202 229.032  1.00 20.00     0.181 C 
HETATM   10  O1  IBP  4409       0.295  46.448 230.025  1.00 20.00    -0.647 OA
HETATM   11  O2  IBP  4409       1.273  47.120 228.287  1.00 20.00    -0.647 OA
ENDBRANCH   7   9
ENDBRANCH   1   7
BRANCH   4  12
HETATM   12  C2  IBP  4409      -3.186  41.388 227.968  1.00 20.00    -0.012 C 
BRANCH  12  13
HETATM   13  C3  IBP  4409      -4.301  40.824 228.820  1.00 20.00     0.001 C 
HETATM   14  C4  IBP  4409      -5.471  40.409 227.929  1.00 20.00     0.013 C 
HETATM   15  C5  IBP  4409      -3.828  39.678 229.704  1.00 20.00     0.013 C 
ENDBRANCH  12  13
ENDBRANCH   4  12
TORSDOF 4
ENDMDL
MODEL 2
REMARK VINA RESULT:      -6.4      0.616      1.761
REMARK  4 active torsions:
REMARK  status: ('A' for Active; 'I' for Inactive)
REMARK    1  A    between atoms: C1_1  and  C6_6 
REMARK    2  A    between atoms: C11_11  and  C2_2 
REMARK    3  A    between atoms: C2_2  and  C3_3 
REMARK    4  A    between atoms: C6_6  and  C8_8 
ROOT
HETATM    1  C8  IBP  4409       0.207  43.913 228.530  1.00 20.00    -0.044 A 
HETATM    2  C9  IBP  4409      -0.625  43.755 227.422  1.00 20.00     0.009 A 
HETATM    3  C10 IBP  4409      -1.717  42.878 227.467  1.00 20.00     0.011 A 
HETATM    4  C11 IBP  4409      -1.962  42.149 228.631  1.00 20.00    -0.040 A 
HETATM    5  C12 IBP  4409      -1.123  42.312 229.719  1.00 20.00     0.011 A 
HETATM    6  C13 IBP  4409      -0.048  43.178 229.675  1.00 20.00     0.009 A 
ENDROOT
BRANCH   1   7
HETATM    7  C6  IBP  4409       1.376  44.827 228.526  1.00 20.00     0.115 C 
HETATM    8  C7  IBP  4409       2.395  44.316 229.536  1.00 20.00     0.026 C 
BRANCH   7   9
HETATM    9  C1  IBP  4409       0.978  46.233 228.898  1.00 20.00     0.181 C 
HETATM   10  O1  IBP  4409       1.314  47.176 228.196  1.00 20.00    -0.647 OA
HETATM   11  O2  IBP  4409       0.324  46.453 229.907  1.00 20.00    -0.647 OA
ENDBRANCH   7   9
ENDBRANCH   1   7
BRANCH   4  12
HETATM   12  C2  IBP  4409      -3.056  41.173 228.872  1.00 20.00    -0.012 C 
BRANCH  12  13
HETATM   13  C3  IBP  4409      -3.970  40.437 227.918  1.00 20.00     0.001 C 
HETATM   14  C4  IBP  4409      -4.484  39.159 228.580  1.00 20.00     0.013 C 
HETATM   15  C5  IBP  4409      -5.111  41.315 227.419  1.00 20.00     0.013 C 
ENDBRANCH  12  13
ENDBRANCH   4  12
TORSDOF 4
ENDMDL
MODEL 3
REMARK VINA RESULT:      -6.1      1.381      1.878
REMARK  4 active torsions:
REMARK  status: ('A' for Active; 'I' for Inactive)
REMARK    1  A    between atoms: C1_1  and  C6_6 
REMARK    2  A    between atoms: C11_11  and  C2_2 
REMARK    3  A    between atoms: C2_2  and  C3_3 
REMARK    4  A    between atoms: C6_6  and  C8_8 
ROOT
HETATM    1  C8  IBP  4409      -0.419  43.298 228.464  1.00 20.00    -0.044 A 
HETATM    2  C9  IBP  4409      -1.125  42.544 229.402  1.00 20.00     0.009 A 
HETATM    3  C10 IBP  4409      -2.347  41.946 229.066  1.00 20.00     0.011 A 
HETATM    4  C11 IBP  4409      -2.862  42.119 227.781  1.00 20.00    -0.040 A 
HETATM    5  C12 IBP  4409      -2.154  42.875 226.864  1.00 20.00     0.011 A 
HETATM    6  C13 IBP  4409      -0.949  43.463 227.196  1.00 20.00     0.009 A 
ENDROOT
BRANCH   1   7
HETATM    7  C6  IBP  4409       0.876  43.952 228.777  1.00 20.00     0.115 C 
HETATM    8  C7  IBP  4409       1.937  42.873 228.943  1.00 20.00     0.026 C 
BRANCH   7   9
HETATM    9  C1  IBP  4409       0.792  44.759 230.048  1.00 20.00     0.181 C 
HETATM   10  O1  IBP  4409       0.204  45.831 230.060  1.00 20.00    -0.647 OA
HETATM   11  O2  IBP  4409       1.315  44.362 231.078  1.00 20.00    -0.647 OA
ENDBRANCH   7   9
ENDBRANCH   1   7
BRANCH   4  12
HETATM   12  C2  IBP  4409      -4.134  41.574 227.238  1.00 20.00    -0.012 C 
BRANCH  12  13
HETATM   13  C3  IBP  4409      -4.575  40.156 226.950  1.00 20.00     0.001 C 
HETATM   14  C4  IBP  4409      -5.957  39.914 227.555  1.00 20.00     0.013 C 
HETATM   15  C5  IBP  4409      -4.544  39.834 225.461  1.00 20.00     0.013 C 
ENDBRANCH  12  13
ENDBRANCH   4  12
TORSDOF 4
ENDMDL
MODEL 4
REMARK VINA RESULT:      -5.8     11.465     12.688
REMARK  4 active torsions:
REMARK  status: ('A' for Active; 'I' for Inactive)
REMARK    1  A    between atoms: C1_1  and  C6_6 
REMARK    2  A    between atoms: C11_11  and  C2_2 
REMARK    3  A    between atoms: C2_2  and  C3_3 
REMARK    4  A    between atoms: C6_6  and  C8_8 
ROOT
HETATM    1  C8  IBP  4409       3.215  37.128 238.040  1.00 20.00    -0.044 A 
HETATM    2  C9  IBP  4409       3.017  36.358 239.186  1.00 20.00     0.009 A 
HETATM    3  C10 IBP  4409       2.924  34.962 239.103  1.00 20.00     0.011 A 
HETATM    4  C11 IBP  4409       3.019  34.343 237.857  1.00 20.00    -0.040 A 
HETATM    5  C12 IBP  4409       3.208  35.121 236.729  1.00 20.00     0.011 A 
HETATM    6  C13 IBP  4409       3.302  36.496 236.811  1.00 20.00     0.009 A 
ENDROOT
BRANCH   1   7
HETATM    7  C6  IBP  4409       3.315  38.608 238.080  1.00 20.00     0.115 C 
HETATM    8  C7  IBP  4409       3.848  39.020 239.446  1.00 20.00     0.026 C 
BRANCH   7   9
HETATM    9  C1  IBP  4409       1.973  39.258 237.859  1.00 20.00     0.181 C 
HETATM   10  O1  IBP  4409       1.656  39.657 236.748  1.00 20.00    -0.647 OA
HETATM   11  O2  IBP  4409       1.188  39.404 238.784  1.00 20.00    -0.647 OA
ENDBRANCH   7   9
ENDBRANCH   1   7
BRANCH   4  12
HETATM   12  C2  IBP  4409       2.941  32.889 237.563  1.00 20.00    -0.012 C 
BRANCH  12  13
HETATM   13  C3  IBP  4409       3.684  32.025 236.568  1.00 20.00     0.001 C 
HETATM   14  C4  IBP  4409       4.095  30.712 237.232  1.00 20.00     0.013 C 
HETATM   15  C5  IBP  4409       2.878  31.789 235.296  1.00 20.00     0.013 C 
ENDBRANCH  12  13
ENDBRANCH   4  12
TORSDOF 4
ENDMDL
MODEL 5
REMARK VINA RESULT:      -5.8     11.584     13.391
REMARK  4 active torsions:
REMARK  status: ('A' for Active; 'I' for Inactive)
REMARK    1  A    between atoms: C1_1  and  C6_6 
REMARK    2  A    between atoms: C11_11  and  C2_2 
REMARK    3  A    between atoms: C2_2  and  C3_3 
REMARK    4  A    between atoms: C6_6  and  C8_8 
ROOT
HETATM    1  C8  IBP  4409       2.244  34.034 236.492  1.00 20.00    -0.044 A 
HETATM    2  C9  IBP  4409       1.508  34.984 235.784  1.00 20.00     0.009 A 
HETATM    3  C10 IBP  4409       1.783  36.351 235.922  1.00 20.00     0.011 A 
HETATM    4  C11 IBP  4409       2.798  36.760 236.788  1.00 20.00    -0.040 A 
HETATM    5  C12 IBP  4409       3.513  35.806 237.489  1.00 20.00     0.011 A 
HETATM    6  C13 IBP  4409       3.243  34.459 237.350  1.00 20.00     0.009 A 
ENDROOT
BRANCH   1   7
HETATM    7  C6  IBP  4409       1.984  32.577 236.379  1.00 20.00     0.115 C 
HETATM    8  C7  IBP  4409       1.763  32.014 237.776  1.00 20.00     0.026 C 
BRANCH   7   9
HETATM    9  C1  IBP  4409       3.145  31.859 235.738  1.00 20.00     0.181 C 
HETATM   10  O1  IBP  4409       3.915  31.198 236.421  1.00 20.00    -0.647 OA
HETATM   11  O2  IBP  4409       3.340  31.931 234.534  1.00 20.00    -0.647 OA
ENDBRANCH   7   9
ENDBRANCH   1   7
BRANCH   4  12
HETATM   12  C2  IBP  4409       3.234  38.152 237.074  1.00 20.00    -0.012 C 
BRANCH  12  13
HETATM   13  C3  IBP  4409       2.905  39.092 238.212  1.00 20.00     0.001 C 
HETATM   14  C4  IBP  4409       1.409  39.029 238.516  1.00 20.00     0.013 C 
HETATM   15  C5  IBP  4409       3.747  38.812 239.451  1.00 20.00     0.013 C 
ENDBRANCH  12  13
ENDBRANCH   4  12
TORSDOF 4
ENDMDL
MODEL 6
REMARK VINA RESULT:      -5.6      1.801      2.170
REMARK  4 active torsions:
REMARK  status: ('A' for Active; 'I' for Inactive)
REMARK    1  A    between atoms: C1_1  and  C6_6 
REMARK    2  A    between atoms: C11_11  and  C2_2 
REMARK    3  A    between atoms: C2_2  and  C3_3 
REMARK    4  A    between atoms: C6_6  and  C8_8 
ROOT
HETATM    1  C8  IBP  4409       0.208  43.916 228.976  1.00 20.00    -0.044 A 
HETATM    2  C9  IBP  4409      -0.482  43.026 229.800  1.00 20.00     0.009 A 
HETATM    3  C10 IBP  4409      -1.562  42.282 229.304  1.00 20.00     0.011 A 
HETATM    4  C11 IBP  4409      -1.952  42.446 227.975  1.00 20.00    -0.040 A 
HETATM    5  C12 IBP  4409      -1.262  43.337 227.173  1.00 20.00     0.011 A 
HETATM    6  C13 IBP  4409      -0.197  44.068 227.661  1.00 20.00     0.009 A 
ENDROOT
BRANCH   1   7
HETATM    7  C6  IBP  4409       1.353  44.726 229.459  1.00 20.00     0.115 C 
HETATM    8  C7  IBP  4409       1.364  46.049 228.704  1.00 20.00     0.026 C 
BRANCH   7   9
HETATM    9  C1  IBP  4409       2.665  44.019 229.230  1.00 20.00     0.181 C 
HETATM   10  O1  IBP  4409       3.714  44.533 229.589  1.00 20.00    -0.647 OA
HETATM   11  O2  IBP  4409       2.701  42.930 228.676  1.00 20.00    -0.647 OA
ENDBRANCH   7   9
ENDBRANCH   1   7
BRANCH   4  12
HETATM   12  C2  IBP  4409      -3.065  41.758 227.270  1.00 20.00    -0.012 C 
BRANCH  12  13
HETATM   13  C3  IBP  4409      -4.562  41.964 227.319  1.00 20.00     0.001 C 
HETATM   14  C4  IBP  4409      -5.026  42.673 226.047  1.00 20.00     0.013 C 
HETATM   15  C5  IBP  4409      -5.316  40.661 227.549  1.00 20.00     0.013 C 
ENDBRANCH  12  13
ENDBRANCH   4  12
TORSDOF 4
ENDMDL
MODEL 7
REMARK VINA RESULT:      -5.6      3.399      6.191
REMARK  4 active torsions:
REMARK  status: ('A' for Active; 'I' for Inactive)
REMARK    1  A    between atoms: C1_1  and  C6_6 
REMARK    2  A    between atoms: C11_11  and  C2_2 
REMARK    3  A    between atoms: C2_2  and  C3_3 
REMARK    4  A    between atoms: C6_6  and  C8_8 
ROOT
HETATM    1  C8  IBP  4409      -2.699  42.250 227.360  1.00 20.00    -0.044 A 
HETATM    2  C9  IBP  4409      -2.405  41.861 228.667  1.00 20.00     0.009 A 
HETATM    3  C10 IBP  4409      -1.262  42.346 229.318  1.00 20.00     0.011 A 
HETATM    4  C11 IBP  4409      -0.408  43.218 228.641  1.00 20.00    -0.040 A 
HETATM    5  C12 IBP  4409      -0.710  43.587 227.343  1.00 20.00     0.011 A 
HETATM    6  C13 IBP  4409      -1.836  43.111 226.703  1.00 20.00     0.009 A 
ENDROOT
BRANCH   1   7
HETATM    7  C6  IBP  4409      -3.895  41.758 226.631  1.00 20.00     0.115 C 
HETATM    8  C7  IBP  4409      -4.866  42.917 226.458  1.00 20.00     0.026 C 
BRANCH   7   9
HETATM    9  C1  IBP  4409      -4.582  40.649 227.386  1.00 20.00     0.181 C 
HETATM   10  O1  IBP  4409      -4.290  39.482 227.169  1.00 20.00    -0.647 OA
HETATM   11  O2  IBP  4409      -5.444  40.895 228.215  1.00 20.00    -0.647 OA
ENDBRANCH   7   9
ENDBRANCH   1   7
BRANCH   4  12
HETATM   12  C2  IBP  4409       0.845  43.831 229.154  1.00 20.00    -0.012 C 
BRANCH  12  13
HETATM   13  C3  IBP  4409       2.240  43.272 229.320  1.00 20.00     0.001 C 
HETATM   14  C4  IBP  4409       2.641  42.504 228.061  1.00 20.00     0.013 C 
HETATM   15  C5  IBP  4409       3.255  44.352 229.673  1.00 20.00     0.013 C 
ENDBRANCH  12  13
ENDBRANCH   4  12
TORSDOF 4
ENDMDL
MODEL 8
REMARK VINA RESULT:      -5.6      8.678     10.575
REMARK  4 active torsions:
REMARK  status: ('A' for Active; 'I' for Inactive)
REMARK    1  A    between atoms: C1_1  and  C6_6 
REMARK    2  A    between atoms: C11_11  and  C2_2 
REMARK    3  A    between atoms: C2_2  and  C3_3 
REMARK    4  A    between atoms: C6_6  and  C8_8 
ROOT
HETATM    1  C8  IBP  4409       0.863  36.464 234.076  1.00 20.00    -0.044 A 
HETATM    2  C9  IBP  4409       1.120  35.518 235.068  1.00 20.00     0.009 A 
HETATM    3  C10 IBP  4409       1.885  35.852 236.194  1.00 20.00     0.011 A 
HETATM    4  C11 IBP  4409       2.401  37.142 236.311  1.00 20.00    -0.040 A 
HETATM    5  C12 IBP  4409       2.143  38.067 235.315  1.00 20.00     0.011 A 
HETATM    6  C13 IBP  4409       1.388  37.738 234.207  1.00 20.00     0.009 A 
ENDROOT
BRANCH   1   7
HETATM    7  C6  IBP  4409       0.062  36.154 232.865  1.00 20.00     0.115 C 
HETATM    8  C7  IBP  4409       0.878  36.526 231.635  1.00 20.00     0.026 C 
BRANCH   7   9
HETATM    9  C1  IBP  4409      -1.233  36.926 232.849  1.00 20.00     0.181 C 
HETATM   10  O1  IBP  4409      -1.438  37.769 231.987  1.00 20.00    -0.647 OA
HETATM   11  O2  IBP  4409      -2.091  36.730 233.696  1.00 20.00    -0.647 OA
ENDBRANCH   7   9
ENDBRANCH   1   7
BRANCH   4  12
HETATM   12  C2  IBP  4409       3.233  37.684 237.418  1.00 20.00    -0.012 C 
BRANCH  12  13
HETATM   13  C3  IBP  4409       3.071  38.913 238.284  1.00 20.00     0.001 C 
HETATM   14  C4  IBP  4409       1.595  39.114 238.622  1.00 20.00     0.013 C 
HETATM   15  C5  IBP  4409       3.936  38.852 239.537  1.00 20.00     0.013 C 
ENDBRANCH  12  13
ENDBRANCH   4  12
TORSDOF 4
ENDMDL
MODEL 9
REMARK VINA RESULT:      -5.5      2.374      2.950
REMARK  4 active torsions:
REMARK  status: ('A' for Active; 'I' for Inactive)
REMARK    1  A    between atoms: C1_1  and  C6_6 
REMARK    2  A    between atoms: C11_11  and  C2_2 
REMARK    3  A    between atoms: C2_2  and  C3_3 
REMARK    4  A    between atoms: C6_6  and  C8_8 
ROOT
HETATM    1  C8  IBP  4409       0.881  42.932 228.936  1.00 20.00    -0.044 A 
HETATM    2  C9  IBP  4409      -0.235  43.511 229.541  1.00 20.00     0.009 A 
HETATM    3  C10 IBP  4409      -1.373  42.744 229.825  1.00 20.00     0.011 A 
HETATM    4  C11 IBP  4409      -1.388  41.390 229.487  1.00 20.00    -0.040 A 
HETATM    5  C12 IBP  4409      -0.276  40.833 228.881  1.00 20.00     0.011 A 
HETATM    6  C13 IBP  4409       0.845  41.589 228.602  1.00 20.00     0.009 A 
ENDROOT
BRANCH   1   7
HETATM    7  C6  IBP  4409       2.105  43.706 228.613  1.00 20.00     0.115 C 
HETATM    8  C7  IBP  4409       2.571  43.317 227.217  1.00 20.00     0.026 C 
BRANCH   7   9
HETATM    9  C1  IBP  4409       3.212  43.424 229.597  1.00 20.00     0.181 C 
HETATM   10  O1  IBP  4409       4.132  42.678 229.293  1.00 20.00    -0.647 OA
HETATM   11  O2  IBP  4409       3.202  43.924 230.712  1.00 20.00    -0.647 OA
ENDBRANCH   7   9
ENDBRANCH   1   7
BRANCH   4  12
HETATM   12  C2  IBP  4409      -2.492  40.419 229.700  1.00 20.00    -0.012 C 
BRANCH  12  13
HETATM   13  C3  IBP  4409      -2.488  38.989 230.191  1.00 20.00     0.001 C 
HETATM   14  C4  IBP  4409      -3.135  38.917 231.573  1.00 20.00     0.013 C 
HETATM   15  C5  IBP  4409      -3.155  38.039 229.203  1.00 20.00     0.013 C 
ENDBRANCH  12  13
ENDBRANCH   4  12
TORSDOF 4
ENDMDL
