MODEL 1
REMARK VINA RESULT:      -5.8      0.000      0.000
REMARK  7 active torsions:
REMARK  status: ('A' for Active; 'I' for Inactive)
REMARK    1  A    between atoms: C11_14  and  C3_4 
REMARK    2  A    between atoms: N1_5  and  O4_6 
REMARK    3  A    between atoms: C11_14  and  C13_16 
REMARK    4  A    between atoms: C12_15  and  C13_16 
REMARK    5  A    between atoms: C12_15  and  C14_17 
REMARK    6  A    between atoms: C14_17  and  C15_18 
REMARK    7  A    between atoms: C15_18  and  C16_19 
ROOT
HETATM    1  C1  HQO  4295      -0.515  35.962 236.968  1.00 20.00     0.186 A 
HETATM    2  O1  HQO  4295      -1.116  34.961 237.446  1.00 20.00    -0.287 OA
HETATM    3  C2  HQO  4295      -0.237  37.062 237.805  1.00 20.00     0.083 A 
HETATM    4  C3  HQO  4295       0.442  38.205 237.284  1.00 20.00     0.044 A 
HETATM    5  N1  HQO  4295       0.830  38.238 235.954  1.00 20.00    -0.228 N 
HETATM    6  C5  HQO  4295       0.566  37.173 235.099  1.00 20.00     0.076 A 
HETATM    7  C6  HQO  4295       0.963  37.212 233.715  1.00 20.00     0.033 A 
HETATM    8  C7  HQO  4295       0.680  36.116 232.860  1.00 20.00     0.002 A 
HETATM    9  C8  HQO  4295      -0.001  34.963 233.368  1.00 20.00     0.001 A 
HETATM   10  C9  HQO  4295      -0.400  34.901 234.726  1.00 20.00     0.018 A 
HETATM   11  C10 HQO  4295      -0.124  35.994 235.601  1.00 20.00     0.043 A 
ENDROOT
BRANCH   4  12
HETATM   12  C11 HQO  4295       0.716  39.303 238.135  1.00 20.00     0.060 C 
BRANCH  12  13
HETATM   13  C13 HQO  4295       1.837  38.982 239.150  1.00 20.00     0.006 C 
BRANCH  13  14
HETATM   14  C12 HQO  4295       3.201  38.970 238.437  1.00 20.00     0.000 C 
BRANCH  14  15
HETATM   15  C14 HQO  4295       3.787  37.569 238.483  1.00 20.00     0.000 C 
BRANCH  15  16
HETATM   16  C15 HQO  4295       3.868  37.057 237.051  1.00 20.00    -0.000 C 
BRANCH  16  17
HETATM   17  C16 HQO  4295       3.304  35.624 237.043  1.00 20.00    -0.005 C 
HETATM   18  C17 HQO  4295       2.930  35.205 238.480  1.00 20.00     0.005 C 
ENDBRANCH  16  17
ENDBRANCH  15  16
ENDBRANCH  14  15
ENDBRANCH  13  14
ENDBRANCH  12  13
ENDBRANCH   4  12
BRANCH   5  19
HETATM   19  O4  HQO  4295       1.415  39.233 235.525  1.00 20.00    -0.282 OA
ATOM     20  H4  HQO  4295       2.364  39.263 235.560  1.00  0.00     0.245 HD
ENDBRANCH   5  19
TORSDOF 7
ENDMDL
MODEL 2
REMARK VINA RESULT:      -5.4      1.882      5.844
REMARK  7 active torsions:
REMARK  status: ('A' for Active; 'I' for Inactive)
REMARK    1  A    between atoms: C11_14  and  C3_4 
REMARK    2  A    between atoms: N1_5  and  O4_6 
REMARK    3  A    between atoms: C11_14  and  C13_16 
REMARK    4  A    between atoms: C12_15  and  C13_16 
REMARK    5  A    between atoms: C12_15  and  C14_17 
REMARK    6  A    between atoms: C14_17  and  C15_18 
REMARK    7  A    between atoms: C15_18  and  C16_19 
ROOT
HETATM    1  C1  HQO  4295       2.246  35.438 237.642  1.00 20.00     0.186 A 
HETATM    2  O1  HQO  4295       2.265  34.323 238.232  1.00 20.00    -0.287 OA
HETATM    3  C2  HQO  4295       1.704  35.519 236.342  1.00 20.00     0.083 A 
HETATM    4  C3  HQO  4295       1.672  36.771 235.657  1.00 20.00     0.044 A 
HETATM    5  N1  HQO  4295       2.173  37.911 236.265  1.00 20.00    -0.228 N 
HETATM    6  C5  HQO  4295       2.719  37.866 237.544  1.00 20.00     0.076 A 
HETATM    7  C6  HQO  4295       3.246  39.050 238.172  1.00 20.00     0.033 A 
HETATM    8  C7  HQO  4295       3.802  38.980 239.475  1.00 20.00     0.002 A 
HETATM    9  C8  HQO  4295       3.842  37.730 240.175  1.00 20.00     0.001 A 
HETATM   10  C9  HQO  4295       3.329  36.552 239.578  1.00 20.00     0.018 A 
HETATM   11  C10 HQO  4295       2.766  36.604 238.268  1.00 20.00     0.043 A 
ENDROOT
BRANCH   4  12
HETATM   12  C11 HQO  4295       1.125  36.841 234.353  1.00 20.00     0.060 C 
BRANCH  12  13
HETATM   13  C13 HQO  4295       0.347  35.557 233.983  1.00 20.00     0.006 C 
BRANCH  13  14
HETATM   14  C12 HQO  4295       0.407  35.329 232.462  1.00 20.00     0.000 C 
BRANCH  14  15
HETATM   15  C14 HQO  4295       0.806  36.621 231.768  1.00 20.00     0.000 C 
BRANCH  15  16
HETATM   16  C15 HQO  4295       0.940  36.322 230.281  1.00 20.00    -0.000 C 
BRANCH  16  17
HETATM   17  C16 HQO  4295      -0.186  37.084 229.557  1.00 20.00    -0.005 C 
HETATM   18  C17 HQO  4295      -0.686  38.240 230.447  1.00 20.00     0.005 C 
ENDBRANCH  16  17
ENDBRANCH  15  16
ENDBRANCH  14  15
ENDBRANCH  13  14
ENDBRANCH  12  13
ENDBRANCH   4  12
BRANCH   5  19
HETATM   19  O4  HQO  4295       2.134  38.982 235.657  1.00 20.00    -0.282 OA
ATOM     20  H4  HQO  4295       1.969  38.977 234.722  1.00  0.00     0.245 HD
ENDBRANCH   5  19
TORSDOF 7
ENDMDL
MODEL 3
REMARK VINA RESULT:      -5.2      1.783      3.273
REMARK  7 active torsions:
REMARK  status: ('A' for Active; 'I' for Inactive)
REMARK    1  A    between atoms: C11_14  and  C3_4 
REMARK    2  A    between atoms: N1_5  and  O4_6 
REMARK    3  A    between atoms: C11_14  and  C13_16 
REMARK    4  A    between atoms: C12_15  and  C13_16 
REMARK    5  A    between atoms: C12_15  and  C14_17 
REMARK    6  A    between atoms: C14_17  and  C15_18 
REMARK    7  A    between atoms: C15_18  and  C16_19 
ROOT
HETATM    1  C1  HQO  4295       0.226  33.885 233.782  1.00 20.00     0.186 A 
HETATM    2  O1  HQO  4295      -0.160  32.692 233.645  1.00 20.00    -0.287 OA
HETATM    3  C2  HQO  4295       0.589  34.347 235.064  1.00 20.00     0.083 A 
HETATM    4  C3  HQO  4295       1.029  35.693 235.242  1.00 20.00     0.044 A 
HETATM    5  N1  HQO  4295       1.101  36.552 234.156  1.00 20.00    -0.228 N 
HETATM    6  C5  HQO  4295       0.745  36.131 232.879  1.00 20.00     0.076 A 
HETATM    7  C6  HQO  4295       0.812  37.026 231.753  1.00 20.00     0.033 A 
HETATM    8  C7  HQO  4295       0.440  36.577 230.460  1.00 20.00     0.002 A 
HETATM    9  C8  HQO  4295      -0.004  35.228 230.266  1.00 20.00     0.001 A 
HETATM   10  C9  HQO  4295      -0.078  34.329 231.358  1.00 20.00     0.018 A 
HETATM   11  C10 HQO  4295       0.292  34.763 232.666  1.00 20.00     0.043 A 
ENDROOT
BRANCH   4  12
HETATM   12  C11 HQO  4295       1.392  36.146 236.534  1.00 20.00     0.060 C 
BRANCH  12  13
HETATM   13  C13 HQO  4295       2.815  35.690 236.928  1.00 20.00     0.006 C 
BRANCH  13  14
HETATM   14  C12 HQO  4295       3.756  36.907 236.992  1.00 20.00     0.000 C 
BRANCH  14  15
HETATM   15  C14 HQO  4295       3.696  37.523 238.380  1.00 20.00     0.000 C 
BRANCH  15  16
HETATM   16  C15 HQO  4295       3.254  38.972 238.221  1.00 20.00    -0.000 C 
BRANCH  16  17
HETATM   17  C16 HQO  4295       1.769  39.046 238.622  1.00 20.00    -0.005 C 
HETATM   18  C17 HQO  4295       0.968  39.763 237.517  1.00 20.00     0.005 C 
ENDBRANCH  16  17
ENDBRANCH  15  16
ENDBRANCH  14  15
ENDBRANCH  13  14
ENDBRANCH  12  13
ENDBRANCH   4  12
BRANCH   5  19
HETATM   19  O4  HQO  4295       1.484  37.709 234.331  1.00 20.00    -0.282 OA
ATOM     20  H4  HQO  4295       0.883  38.426 234.164  1.00  0.00     0.245 HD
ENDBRANCH   5  19
TORSDOF 7
ENDMDL
MODEL 4
REMARK VINA RESULT:      -5.2      5.316      8.117
REMARK  7 active torsions:
REMARK  status: ('A' for Active; 'I' for Inactive)
REMARK    1  A    between atoms: C11_14  and  C3_4 
REMARK    2  A    between atoms: N1_5  and  O4_6 
REMARK    3  A    between atoms: C11_14  and  C13_16 
REMARK    4  A    between atoms: C12_15  and  C13_16 
REMARK    5  A    between atoms: C12_15  and  C14_17 
REMARK    6  A    between atoms: C14_17  and  C15_18 
REMARK    7  A    between atoms: C15_18  and  C16_19 
ROOT
HETATM    1  C1  HQO  4295      -0.360  37.542 230.026  1.00 20.00     0.186 A 
HETATM    2  O1  HQO  4295       0.483  36.968 229.284  1.00 20.00    -0.287 OA
HETATM    3  C2  HQO  4295      -1.460  38.200 229.436  1.00 20.00     0.083 A 
HETATM    4  C3  HQO  4295      -2.426  38.856 230.257  1.00 20.00     0.044 A 
HETATM    5  N1  HQO  4295      -2.287  38.850 231.636  1.00 20.00    -0.228 N 
HETATM    6  C5  HQO  4295      -1.212  38.216 232.250  1.00 20.00     0.076 A 
HETATM    7  C6  HQO  4295      -1.065  38.217 233.683  1.00 20.00     0.033 A 
HETATM    8  C7  HQO  4295       0.042  37.568 234.287  1.00 20.00     0.002 A 
HETATM    9  C8  HQO  4295       1.020  36.905 233.476  1.00 20.00     0.001 A 
HETATM   10  C9  HQO  4295       0.896  36.889 232.065  1.00 20.00     0.018 A 
HETATM   11  C10 HQO  4295      -0.211  37.538 231.439  1.00 20.00     0.043 A 
ENDROOT
BRANCH   4  12
HETATM   12  C11 HQO  4295      -3.526  39.513 229.654  1.00 20.00     0.060 C 
BRANCH  12  13
HETATM   13  C13 HQO  4295      -3.072  40.614 228.668  1.00 20.00     0.006 C 
BRANCH  13  14
HETATM   14  C12 HQO  4295      -2.426  41.776 229.444  1.00 20.00     0.000 C 
BRANCH  14  15
HETATM   15  C14 HQO  4295      -1.300  42.375 228.618  1.00 20.00     0.000 C 
BRANCH  15  16
HETATM   16  C15 HQO  4295       0.012  41.824 229.159  1.00 20.00    -0.000 C 
BRANCH  16  17
HETATM   17  C16 HQO  4295       0.970  41.661 227.964  1.00 20.00    -0.005 C 
HETATM   18  C17 HQO  4295       2.214  42.549 228.171  1.00 20.00     0.005 C 
ENDBRANCH  16  17
ENDBRANCH  15  16
ENDBRANCH  14  15
ENDBRANCH  13  14
ENDBRANCH  12  13
ENDBRANCH   4  12
BRANCH   5  19
HETATM   19  O4  HQO  4295      -3.132  39.421 232.326  1.00 20.00    -0.282 OA
ATOM     20  H4  HQO  4295      -3.144  40.371 232.353  1.00  0.00     0.245 HD
ENDBRANCH   5  19
TORSDOF 7
ENDMDL
MODEL 5
REMARK VINA RESULT:      -5.1      1.673      5.289
REMARK  7 active torsions:
REMARK  status: ('A' for Active; 'I' for Inactive)
REMARK    1  A    between atoms: C11_14  and  C3_4 
REMARK    2  A    between atoms: N1_5  and  O4_6 
REMARK    3  A    between atoms: C11_14  and  C13_16 
REMARK    4  A    between atoms: C12_15  and  C13_16 
REMARK    5  A    between atoms: C12_15  and  C14_17 
REMARK    6  A    between atoms: C14_17  and  C15_18 
REMARK    7  A    between atoms: C15_18  and  C16_19 
ROOT
HETATM    1  C1  HQO  4295       2.216  35.688 236.805  1.00 20.00     0.186 A 
HETATM    2  O1  HQO  4295       2.494  34.477 237.017  1.00 20.00    -0.287 OA
HETATM    3  C2  HQO  4295       1.568  36.046 235.604  1.00 20.00     0.083 A 
HETATM    4  C3  HQO  4295       1.244  37.411 235.344  1.00 20.00     0.044 A 
HETATM    5  N1  HQO  4295       1.565  38.392 236.269  1.00 20.00    -0.228 N 
HETATM    6  C5  HQO  4295       2.208  38.075 237.461  1.00 20.00     0.076 A 
HETATM    7  C6  HQO  4295       2.547  39.096 238.418  1.00 20.00     0.033 A 
HETATM    8  C7  HQO  4295       3.208  38.752 239.626  1.00 20.00     0.002 A 
HETATM    9  C8  HQO  4295       3.541  37.385 239.901  1.00 20.00     0.001 A 
HETATM   10  C9  HQO  4295       3.215  36.363 238.975  1.00 20.00     0.018 A 
HETATM   11  C10 HQO  4295       2.552  36.691 237.755  1.00 20.00     0.043 A 
ENDROOT
BRANCH   4  12
HETATM   12  C11 HQO  4295       0.594  37.758 234.134  1.00 20.00     0.060 C 
BRANCH  12  13
HETATM   13  C13 HQO  4295       1.270  37.105 232.907  1.00 20.00     0.006 C 
BRANCH  13  14
HETATM   14  C12 HQO  4295       0.210  36.774 231.840  1.00 20.00     0.000 C 
BRANCH  14  15
HETATM   15  C14 HQO  4295       0.214  35.280 231.564  1.00 20.00     0.000 C 
BRANCH  15  16
HETATM   16  C15 HQO  4295      -0.387  34.585 232.779  1.00 20.00    -0.000 C 
BRANCH  16  17
HETATM   17  C16 HQO  4295       0.068  33.115 232.739  1.00 20.00    -0.005 C 
HETATM   18  C17 HQO  4295       0.964  32.815 233.958  1.00 20.00     0.005 C 
ENDBRANCH  16  17
ENDBRANCH  15  16
ENDBRANCH  14  15
ENDBRANCH  13  14
ENDBRANCH  12  13
ENDBRANCH   4  12
BRANCH   5  19
HETATM   19  O4  HQO  4295       1.276  39.564 236.026  1.00 20.00    -0.282 OA
ATOM     20  H4  HQO  4295       1.973  40.192 235.877  1.00  0.00     0.245 HD
ENDBRANCH   5  19
TORSDOF 7
ENDMDL
MODEL 6
REMARK VINA RESULT:      -5.1      1.311      2.503
REMARK  7 active torsions:
REMARK  status: ('A' for Active; 'I' for Inactive)
REMARK    1  A    between atoms: C11_14  and  C3_4 
REMARK    2  A    between atoms: N1_5  and  O4_6 
REMARK    3  A    between atoms: C11_14  and  C13_16 
REMARK    4  A    between atoms: C12_15  and  C13_16 
REMARK    5  A    between atoms: C12_15  and  C14_17 
REMARK    6  A    between atoms: C14_17  and  C15_18 
REMARK    7  A    between atoms: C15_18  and  C16_19 
ROOT
HETATM    1  C1  HQO  4295       1.074  37.255 234.360  1.00 20.00     0.186 A 
HETATM    2  O1  HQO  4295       1.496  37.348 233.176  1.00 20.00    -0.287 OA
HETATM    3  C2  HQO  4295       1.177  38.372 235.217  1.00 20.00     0.083 A 
HETATM    4  C3  HQO  4295       0.706  38.289 236.561  1.00 20.00     0.044 A 
HETATM    5  N1  HQO  4295       0.147  37.111 237.032  1.00 20.00    -0.228 N 
HETATM    6  C5  HQO  4295       0.035  35.990 236.216  1.00 20.00     0.076 A 
HETATM    7  C6  HQO  4295      -0.540  34.765 236.709  1.00 20.00     0.033 A 
HETATM    8  C7  HQO  4295      -0.639  33.631 235.862  1.00 20.00     0.002 A 
HETATM    9  C8  HQO  4295      -0.170  33.699 234.509  1.00 20.00     0.001 A 
HETATM   10  C9  HQO  4295       0.397  34.894 234.002  1.00 20.00     0.018 A 
HETATM   11  C10 HQO  4295       0.506  36.044 234.840  1.00 20.00     0.043 A 
ENDROOT
BRANCH   4  12
HETATM   12  C11 HQO  4295       0.814  39.416 237.411  1.00 20.00     0.060 C 
BRANCH  12  13
HETATM   13  C13 HQO  4295       1.831  39.185 238.552  1.00 20.00     0.006 C 
BRANCH  13  14
HETATM   14  C12 HQO  4295       3.225  38.904 237.961  1.00 20.00     0.000 C 
BRANCH  14  15
HETATM   15  C14 HQO  4295       3.731  37.563 238.465  1.00 20.00     0.000 C 
BRANCH  15  16
HETATM   16  C15 HQO  4295       3.745  36.603 237.283  1.00 20.00    -0.000 C 
BRANCH  16  17
HETATM   17  C16 HQO  4295       3.241  35.240 237.793  1.00 20.00    -0.005 C 
HETATM   18  C17 HQO  4295       3.216  34.227 236.630  1.00 20.00     0.005 C 
ENDBRANCH  16  17
ENDBRANCH  15  16
ENDBRANCH  14  15
ENDBRANCH  13  14
ENDBRANCH  12  13
ENDBRANCH   4  12
BRANCH   5  19
HETATM   19  O4  HQO  4295      -0.255  37.061 238.195  1.00 20.00    -0.282 OA
ATOM     20  H4  HQO  4295      -1.182  37.171 238.370  1.00  0.00     0.245 HD
ENDBRANCH   5  19
TORSDOF 7
ENDMDL
MODEL 7
REMARK VINA RESULT:      -5.0      1.663      5.514
REMARK  7 active torsions:
REMARK  status: ('A' for Active; 'I' for Inactive)
REMARK    1  A    between atoms: C11_14  and  C3_4 
REMARK    2  A    between atoms: N1_5  and  O4_6 
REMARK    3  A    between atoms: C11_14  and  C13_16 
REMARK    4  A    between atoms: C12_15  and  C13_16 
REMARK    5  A    between atoms: C12_15  and  C14_17 
REMARK    6  A    between atoms: C14_17  and  C15_18 
REMARK    7  A    between atoms: C15_18  and  C16_19 
ROOT
HETATM    1  C1  HQO  4295       1.194  38.895 237.416  1.00 20.00     0.186 A 
HETATM    2  O1  HQO  4295       1.338  40.012 236.849  1.00 20.00    -0.287 OA
HETATM    3  C2  HQO  4295       0.075  38.098 237.093  1.00 20.00     0.083 A 
HETATM    4  C3  HQO  4295      -0.107  36.831 237.723  1.00 20.00     0.044 A 
HETATM    5  N1  HQO  4295       0.813  36.377 238.656  1.00 20.00    -0.228 N 
HETATM    6  C5  HQO  4295       1.924  37.140 239.001  1.00 20.00     0.076 A 
HETATM    7  C6  HQO  4295       2.875  36.671 239.976  1.00 20.00     0.033 A 
HETATM    8  C7  HQO  4295       3.999  37.467 240.317  1.00 20.00     0.002 A 
HETATM    9  C8  HQO  4295       4.195  38.742 239.693  1.00 20.00     0.001 A 
HETATM   10  C9  HQO  4295       3.274  39.224 238.731  1.00 20.00     0.018 A 
HETATM   11  C10 HQO  4295       2.137  38.437 238.376  1.00 20.00     0.043 A 
ENDROOT
BRANCH   4  12
HETATM   12  C11 HQO  4295      -1.233  36.039 237.390  1.00 20.00     0.060 C 
BRANCH  12  13
HETATM   13  C13 HQO  4295      -1.246  35.653 235.894  1.00 20.00     0.006 C 
BRANCH  13  14
HETATM   14  C12 HQO  4295      -0.140  34.620 235.611  1.00 20.00     0.000 C 
BRANCH  14  15
HETATM   15  C14 HQO  4295       0.616  35.014 234.353  1.00 20.00     0.000 C 
BRANCH  15  16
HETATM   16  C15 HQO  4295      -0.033  36.277 233.803  1.00 20.00    -0.000 C 
BRANCH  16  17
HETATM   17  C16 HQO  4295       1.042  37.035 233.003  1.00 20.00    -0.005 C 
HETATM   18  C17 HQO  4295       0.968  36.627 231.517  1.00 20.00     0.005 C 
ENDBRANCH  16  17
ENDBRANCH  15  16
ENDBRANCH  14  15
ENDBRANCH  13  14
ENDBRANCH  12  13
ENDBRANCH   4  12
BRANCH   5  19
HETATM   19  O4  HQO  4295       0.638  35.280 239.187  1.00 20.00    -0.282 OA
ATOM     20  H4  HQO  4295      -0.175  34.815 239.031  1.00  0.00     0.245 HD
ENDBRANCH   5  19
TORSDOF 7
ENDMDL
MODEL 8
REMARK VINA RESULT:      -4.9      3.112      4.668
REMARK  7 active torsions:
REMARK  status: ('A' for Active; 'I' for Inactive)
REMARK    1  A    between atoms: C11_14  and  C3_4 
REMARK    2  A    between atoms: N1_5  and  O4_6 
REMARK    3  A    between atoms: C11_14  and  C13_16 
REMARK    4  A    between atoms: C12_15  and  C13_16 
REMARK    5  A    between atoms: C12_15  and  C14_17 
REMARK    6  A    between atoms: C14_17  and  C15_18 
REMARK    7  A    between atoms: C15_18  and  C16_19 
ROOT
HETATM    1  C1  HQO  4295       0.542  36.892 231.077  1.00 20.00     0.186 A 
HETATM    2  O1  HQO  4295       1.177  36.257 230.192  1.00 20.00    -0.287 OA
HETATM    3  C2  HQO  4295       1.080  36.985 232.378  1.00 20.00     0.083 A 
HETATM    4  C3  HQO  4295       0.377  37.698 233.395  1.00 20.00     0.044 A 
HETATM    5  N1  HQO  4295      -0.838  38.302 233.110  1.00 20.00    -0.228 N 
HETATM    6  C5  HQO  4295      -1.400  38.225 231.839  1.00 20.00     0.076 A 
HETATM    7  C6  HQO  4295      -2.666  38.846 231.547  1.00 20.00     0.033 A 
HETATM    8  C7  HQO  4295      -3.224  38.751 230.245  1.00 20.00     0.002 A 
HETATM    9  C8  HQO  4295      -2.530  38.038 229.214  1.00 20.00     0.001 A 
HETATM   10  C9  HQO  4295      -1.282  37.420 229.478  1.00 20.00     0.018 A 
HETATM   11  C10 HQO  4295      -0.707  37.505 230.781  1.00 20.00     0.043 A 
ENDROOT
BRANCH   4  12
HETATM   12  C11 HQO  4295       0.928  37.785 234.697  1.00 20.00     0.060 C 
BRANCH  12  13
HETATM   13  C13 HQO  4295       1.311  36.396 235.256  1.00 20.00     0.006 C 
BRANCH  13  14
HETATM   14  C12 HQO  4295       1.998  36.554 236.624  1.00 20.00     0.000 C 
BRANCH  14  15
HETATM   15  C14 HQO  4295       3.025  37.671 236.553  1.00 20.00     0.000 C 
BRANCH  15  16
HETATM   16  C15 HQO  4295       2.893  38.500 237.824  1.00 20.00    -0.000 C 
BRANCH  16  17
HETATM   17  C16 HQO  4295       1.478  38.260 238.383  1.00 20.00    -0.005 C 
HETATM   18  C17 HQO  4295       0.653  39.559 238.285  1.00 20.00     0.005 C 
ENDBRANCH  16  17
ENDBRANCH  15  16
ENDBRANCH  14  15
ENDBRANCH  13  14
ENDBRANCH  12  13
ENDBRANCH   4  12
BRANCH   5  19
HETATM   19  O4  HQO  4295      -1.428  38.913 234.001  1.00 20.00    -0.282 OA
ATOM     20  H4  HQO  4295      -1.338  38.621 234.900  1.00  0.00     0.245 HD
ENDBRANCH   5  19
TORSDOF 7
ENDMDL
MODEL 9
REMARK VINA RESULT:      -4.7      1.540      1.971
REMARK  7 active torsions:
REMARK  status: ('A' for Active; 'I' for Inactive)
REMARK    1  A    between atoms: C11_14  and  C3_4 
REMARK    2  A    between atoms: N1_5  and  O4_6 
REMARK    3  A    between atoms: C11_14  and  C13_16 
REMARK    4  A    between atoms: C12_15  and  C13_16 
REMARK    5  A    between atoms: C12_15  and  C14_17 
REMARK    6  A    between atoms: C14_17  and  C15_18 
REMARK    7  A    between atoms: C15_18  and  C16_19 
ROOT
HETATM    1  C1  HQO  4295      -1.397  36.480 234.737  1.00 20.00     0.186 A 
HETATM    2  O1  HQO  4295      -2.513  35.895 234.789  1.00 20.00    -0.287 OA
HETATM    3  C2  HQO  4295      -0.927  37.168 235.876  1.00 20.00     0.083 A 
HETATM    4  C3  HQO  4295       0.333  37.836 235.839  1.00 20.00     0.044 A 
HETATM    5  N1  HQO  4295       1.101  37.815 234.685  1.00 20.00    -0.228 N 
HETATM    6  C5  HQO  4295       0.665  37.151 233.543  1.00 20.00     0.076 A 
HETATM    7  C6  HQO  4295       1.460  37.135 232.342  1.00 20.00     0.033 A 
HETATM    8  C7  HQO  4295       0.994  36.456 231.186  1.00 20.00     0.002 A 
HETATM    9  C8  HQO  4295      -0.270  35.781 231.208  1.00 20.00     0.001 A 
HETATM   10  C9  HQO  4295      -1.068  35.781 232.378  1.00 20.00     0.018 A 
HETATM   11  C10 HQO  4295      -0.616  36.459 233.549  1.00 20.00     0.043 A 
ENDROOT
BRANCH   4  12
HETATM   12  C11 HQO  4295       0.795  38.523 236.989  1.00 20.00     0.060 C 
BRANCH  12  13
HETATM   13  C13 HQO  4295       1.120  37.554 238.149  1.00 20.00     0.006 C 
BRANCH  13  14
HETATM   14  C12 HQO  4295       2.567  37.774 238.624  1.00 20.00     0.000 C 
BRANCH  14  15
HETATM   15  C14 HQO  4295       3.478  36.743 237.978  1.00 20.00     0.000 C 
BRANCH  15  16
HETATM   16  C15 HQO  4295       2.711  35.429 237.909  1.00 20.00    -0.000 C 
BRANCH  16  17
HETATM   17  C16 HQO  4295       2.964  34.822 236.517  1.00 20.00    -0.005 C 
HETATM   18  C17 HQO  4295       1.631  34.339 235.911  1.00 20.00     0.005 C 
ENDBRANCH  16  17
ENDBRANCH  15  16
ENDBRANCH  14  15
ENDBRANCH  13  14
ENDBRANCH  12  13
ENDBRANCH   4  12
BRANCH   5  19
HETATM   19  O4  HQO  4295       2.185  38.397 234.675  1.00 20.00    -0.282 OA
ATOM     20  H4  HQO  4295       2.806  38.208 233.981  1.00  0.00     0.245 HD
ENDBRANCH   5  19
TORSDOF 7
ENDMDL
