MODEL 1
REMARK VINA RESULT:      -6.4      0.000      0.000
REMARK  13 active torsions:
REMARK  status: ('A' for Active; 'I' for Inactive)
REMARK    1  A    between atoms: C3_11  and  O3_3 
REMARK    2  A    between atoms: C5_13  and  O5_5 
REMARK    3  A    between atoms: C14_24  and  O14_7 
REMARK    4  A    between atoms: C18_27  and  O14_7 
REMARK    5  A    between atoms: C1_9  and  C2_10 
REMARK    6  A    between atoms: C2_10  and  C3_11 
REMARK    7  A    between atoms: C3_11  and  C4_12 
REMARK    8  A    between atoms: C4_12  and  C5_13 
REMARK    9  A    between atoms: C5_13  and  C6_14 
REMARK   10  A    between atoms: C6_14  and  C7_15 
REMARK   11  A    between atoms: C7_15  and  C8_16 
REMARK   12  A    between atoms: C18_27  and  C19_28 
REMARK   13  A    between atoms: C19_28  and  C20_29 
ROOT
HETATM    1  C8  SIM  6866      -0.628  36.375 231.112  1.00 20.00     0.004 C 
HETATM    2  C9  SIM  6866      -0.391  35.227 230.069  1.00 20.00     0.009 C 
HETATM    3  C10 SIM  6866      -0.413  33.865 230.801  1.00 20.00    -0.022 C 
HETATM    4  C11 SIM  6866      -0.062  33.700 232.104  1.00 20.00     0.004 C 
HETATM    5  C12 SIM  6866       0.342  34.741 232.885  1.00 20.00    -0.055 C 
HETATM    6  C17 SIM  6866       0.691  34.511 234.186  1.00 20.00    -0.015 C 
HETATM    7  C16 SIM  6866       1.173  35.595 235.177  1.00 20.00     0.007 C 
HETATM    8  C15 SIM  6866       1.260  37.020 234.541  1.00 20.00     0.041 C 
HETATM    9  C14 SIM  6866       0.215  37.256 233.417  1.00 20.00     0.141 C 
HETATM   10  C13 SIM  6866       0.411  36.196 232.296  1.00 20.00     0.052 C 
HETATM   11  C9A SIM  6866       0.965  35.312 229.339  1.00 20.00     0.014 C 
HETATM   12  C24 SIM  6866       0.224  35.606 236.384  1.00 20.00     0.014 C 
ENDROOT
BRANCH   1  13
HETATM   13  C7  SIM  6866      -0.633  37.808 230.468  1.00 20.00     0.009 C 
BRANCH  13  14
HETATM   14  C6  SIM  6866      -2.003  38.219 229.858  1.00 20.00     0.032 C 
BRANCH  14  15
HETATM   15  C5  SIM  6866      -2.227  39.739 229.676  1.00 20.00     0.120 C 
BRANCH  15  16
HETATM   16  C4  SIM  6866      -0.928  40.524 229.851  1.00 20.00     0.064 C 
BRANCH  16  17
HETATM   17  C3  SIM  6866      -0.959  41.947 229.318  1.00 20.00     0.130 C 
BRANCH  17  18
HETATM   18  C2  SIM  6866       0.432  42.593 229.340  1.00 20.00     0.144 C 
BRANCH  18  19
HETATM   19  C1  SIM  6866       0.416  44.059 229.731  1.00 20.00     0.175 C 
HETATM   20  O1A SIM  6866      -0.004  44.863 228.709  1.00 20.00    -0.648 OA
HETATM   21  O1B SIM  6866       0.743  44.482 230.835  1.00 20.00    -0.648 OA
ENDBRANCH  18  19
ENDBRANCH  17  18
BRANCH  17  22
HETATM   22  O3  SIM  6866      -1.830  42.691 230.157  1.00 20.00    -0.395 OA
ATOM     23  H3  SIM  6866      -2.501  43.101 229.624  1.00  0.00     0.210 HD
ENDBRANCH  17  22
ENDBRANCH  16  17
ENDBRANCH  15  16
BRANCH  15  24
HETATM   24  O5  SIM  6866      -3.132  40.196 230.669  1.00 20.00    -0.395 OA
ATOM     25  H5  SIM  6866      -3.296  41.116 230.499  1.00  0.00     0.210 HD
ENDBRANCH  15  24
ENDBRANCH  14  15
ENDBRANCH  13  14
ENDBRANCH   1  13
BRANCH   9  26
HETATM   26  O14 SIM  6866      -1.149  37.110 233.942  1.00 20.00    -0.315 OA
BRANCH  26  27
HETATM   27  C18 SIM  6866      -2.141  38.025 233.595  1.00 20.00     0.267 C 
HETATM   28  O18 SIM  6866      -1.931  39.207 233.294  1.00 20.00    -0.264 OA
BRANCH  27  29
HETATM   29  C19 SIM  6866      -3.586  37.387 233.618  1.00 20.00     0.040 C 
HETATM   30  C22 SIM  6866      -4.678  38.454 233.296  1.00 20.00     0.025 C 
HETATM   31  C23 SIM  6866      -3.964  36.824 235.022  1.00 20.00     0.025 C 
BRANCH  29  32
HETATM   32  C20 SIM  6866      -3.701  36.221 232.587  1.00 20.00     0.014 C 
HETATM   33  C21 SIM  6866      -3.493  34.786 233.103  1.00 20.00     0.006 C 
ENDBRANCH  29  32
ENDBRANCH  27  29
ENDBRANCH  26  27
ENDBRANCH   9  26
TORSDOF 13
ENDMDL
MODEL 2
REMARK VINA RESULT:      -6.3      1.986      4.548
REMARK  13 active torsions:
REMARK  status: ('A' for Active; 'I' for Inactive)
REMARK    1  A    between atoms: C3_11  and  O3_3 
REMARK    2  A    between atoms: C5_13  and  O5_5 
REMARK    3  A    between atoms: C14_24  and  O14_7 
REMARK    4  A    between atoms: C18_27  and  O14_7 
REMARK    5  A    between atoms: C1_9  and  C2_10 
REMARK    6  A    between atoms: C2_10  and  C3_11 
REMARK    7  A    between atoms: C3_11  and  C4_12 
REMARK    8  A    between atoms: C4_12  and  C5_13 
REMARK    9  A    between atoms: C5_13  and  C6_14 
REMARK   10  A    between atoms: C6_14  and  C7_15 
REMARK   11  A    between atoms: C7_15  and  C8_16 
REMARK   12  A    between atoms: C18_27  and  C19_28 
REMARK   13  A    between atoms: C19_28  and  C20_29 
ROOT
HETATM    1  C8  SIM  6866      -2.531  39.009 230.158  1.00 20.00     0.004 C 
HETATM    2  C9  SIM  6866      -3.929  39.423 229.577  1.00 20.00     0.009 C 
HETATM    3  C10 SIM  6866      -4.749  38.148 229.272  1.00 20.00    -0.022 C 
HETATM    4  C11 SIM  6866      -4.193  36.950 228.950  1.00 20.00     0.004 C 
HETATM    5  C12 SIM  6866      -2.844  36.773 228.872  1.00 20.00    -0.055 C 
HETATM    6  C17 SIM  6866      -2.344  35.546 228.534  1.00 20.00    -0.015 C 
HETATM    7  C16 SIM  6866      -0.841  35.210 228.402  1.00 20.00     0.007 C 
HETATM    8  C15 SIM  6866       0.093  36.435 228.667  1.00 20.00     0.041 C 
HETATM    9  C14 SIM  6866      -0.497  37.449 229.685  1.00 20.00     0.141 C 
HETATM   10  C13 SIM  6866      -1.867  37.969 229.164  1.00 20.00     0.052 C 
HETATM   11  C9A SIM  6866      -3.852  40.222 228.260  1.00 20.00     0.014 C 
HETATM   12  C24 SIM  6866      -0.512  34.068 229.375  1.00 20.00     0.014 C 
ENDROOT
BRANCH   1  13
HETATM   13  C7  SIM  6866      -1.619  40.238 230.513  1.00 20.00     0.009 C 
BRANCH  13  14
HETATM   14  C6  SIM  6866      -0.590  40.599 229.404  1.00 20.00     0.032 C 
BRANCH  14  15
HETATM   15  C5  SIM  6866      -0.497  42.100 229.039  1.00 20.00     0.120 C 
BRANCH  15  16
HETATM   16  C4  SIM  6866       0.920  42.491 228.624  1.00 20.00     0.064 C 
BRANCH  16  17
HETATM   17  C3  SIM  6866       1.031  43.811 227.877  1.00 20.00     0.130 C 
BRANCH  17  18
HETATM   18  C2  SIM  6866       1.750  44.878 228.711  1.00 20.00     0.144 C 
BRANCH  18  19
HETATM   19  C1  SIM  6866       0.824  45.945 229.263  1.00 20.00     0.175 C 
HETATM   20  O1A SIM  6866       0.190  45.542 230.404  1.00 20.00    -0.648 OA
HETATM   21  O1B SIM  6866       0.658  47.047 228.749  1.00 20.00    -0.648 OA
ENDBRANCH  18  19
ENDBRANCH  17  18
BRANCH  17  22
HETATM   22  O3  SIM  6866      -0.291  44.250 227.601  1.00 20.00    -0.395 OA
ATOM     23  H3  SIM  6866      -0.322  45.198 227.656  1.00  0.00     0.210 HD
ENDBRANCH  17  22
ENDBRANCH  16  17
ENDBRANCH  15  16
BRANCH  15  24
HETATM   24  O5  SIM  6866      -0.829  42.875 230.181  1.00 20.00    -0.395 OA
ATOM     25  H5  SIM  6866      -1.069  43.742 229.873  1.00  0.00     0.210 HD
ENDBRANCH  15  24
ENDBRANCH  14  15
ENDBRANCH  13  14
ENDBRANCH   1  13
BRANCH   9  26
HETATM   26  O14 SIM  6866      -0.724  36.802 230.984  1.00 20.00    -0.315 OA
BRANCH  26  27
HETATM   27  C18 SIM  6866       0.239  36.877 231.988  1.00 20.00     0.267 C 
HETATM   28  O18 SIM  6866       1.461  36.863 231.790  1.00 20.00    -0.264 OA
BRANCH  27  29
HETATM   29  C19 SIM  6866      -0.398  36.991 233.429  1.00 20.00     0.040 C 
HETATM   30  C22 SIM  6866      -1.493  35.902 233.649  1.00 20.00     0.025 C 
HETATM   31  C23 SIM  6866      -1.123  38.353 233.652  1.00 20.00     0.025 C 
BRANCH  29  32
HETATM   32  C20 SIM  6866       0.693  36.841 234.536  1.00 20.00     0.014 C 
HETATM   33  C21 SIM  6866       1.227  38.127 235.193  1.00 20.00     0.006 C 
ENDBRANCH  29  32
ENDBRANCH  27  29
ENDBRANCH  26  27
ENDBRANCH   9  26
TORSDOF 13
ENDMDL
MODEL 3
REMARK VINA RESULT:      -6.1      3.981      7.073
REMARK  13 active torsions:
REMARK  status: ('A' for Active; 'I' for Inactive)
REMARK    1  A    between atoms: C3_11  and  O3_3 
REMARK    2  A    between atoms: C5_13  and  O5_5 
REMARK    3  A    between atoms: C14_24  and  O14_7 
REMARK    4  A    between atoms: C18_27  and  O14_7 
REMARK    5  A    between atoms: C1_9  and  C2_10 
REMARK    6  A    between atoms: C2_10  and  C3_11 
REMARK    7  A    between atoms: C3_11  and  C4_12 
REMARK    8  A    between atoms: C4_12  and  C5_13 
REMARK    9  A    between atoms: C5_13  and  C6_14 
REMARK   10  A    between atoms: C6_14  and  C7_15 
REMARK   11  A    between atoms: C7_15  and  C8_16 
REMARK   12  A    between atoms: C18_27  and  C19_28 
REMARK   13  A    between atoms: C19_28  and  C20_29 
ROOT
HETATM    1  C8  SIM  6866       1.138  35.021 235.633  1.00 20.00     0.004 C 
HETATM    2  C9  SIM  6866       2.128  34.918 236.847  1.00 20.00     0.009 C 
HETATM    3  C10 SIM  6866       3.235  33.891 236.513  1.00 20.00    -0.022 C 
HETATM    4  C11 SIM  6866       3.060  32.838 235.670  1.00 20.00     0.004 C 
HETATM    5  C12 SIM  6866       1.876  32.601 235.039  1.00 20.00    -0.055 C 
HETATM    6  C17 SIM  6866       1.759  31.521 234.210  1.00 20.00    -0.015 C 
HETATM    7  C16 SIM  6866       0.476  31.132 233.440  1.00 20.00     0.007 C 
HETATM    8  C15 SIM  6866      -0.727  32.091 233.719  1.00 20.00     0.041 C 
HETATM    9  C14 SIM  6866      -0.292  33.550 234.026  1.00 20.00     0.141 C 
HETATM   10  C13 SIM  6866       0.651  33.560 235.263  1.00 20.00     0.052 C 
HETATM   11  C9A SIM  6866       1.468  34.444 238.158  1.00 20.00     0.014 C 
HETATM   12  C24 SIM  6866       0.800  31.104 231.940  1.00 20.00     0.014 C 
ENDROOT
BRANCH   1  13
HETATM   13  C7  SIM  6866      -0.024  36.051 235.867  1.00 20.00     0.009 C 
BRANCH  13  14
HETATM   14  C6  SIM  6866       0.311  37.497 235.403  1.00 20.00     0.032 C 
BRANCH  14  15
HETATM   15  C5  SIM  6866       1.565  38.135 236.048  1.00 20.00     0.120 C 
BRANCH  15  16
HETATM   16  C4  SIM  6866       1.193  39.293 236.972  1.00 20.00     0.064 C 
BRANCH  16  17
HETATM   17  C3  SIM  6866       1.674  39.151 238.408  1.00 20.00     0.130 C 
BRANCH  17  18
HETATM   18  C2  SIM  6866       3.204  39.152 238.498  1.00 20.00     0.144 C 
BRANCH  18  19
HETATM   19  C1  SIM  6866       3.762  38.063 239.396  1.00 20.00     0.175 C 
HETATM   20  O1A SIM  6866       4.084  36.932 238.700  1.00 20.00    -0.648 OA
HETATM   21  O1B SIM  6866       3.909  38.177 240.608  1.00 20.00    -0.648 OA
ENDBRANCH  18  19
ENDBRANCH  17  18
BRANCH  17  22
HETATM   22  O3  SIM  6866       1.181  37.912 238.895  1.00 20.00    -0.395 OA
ATOM     23  H3  SIM  6866       0.462  37.624 238.343  1.00  0.00     0.210 HD
ENDBRANCH  17  22
ENDBRANCH  16  17
ENDBRANCH  15  16
BRANCH  15  24
HETATM   24  O5  SIM  6866       2.394  38.662 235.025  1.00 20.00    -0.395 OA
ATOM     25  H5  SIM  6866       2.213  38.169 234.233  1.00  0.00     0.210 HD
ENDBRANCH  15  24
ENDBRANCH  14  15
ENDBRANCH  13  14
ENDBRANCH   1  13
BRANCH   9  26
HETATM   26  O14 SIM  6866       0.447  34.118 232.891  1.00 20.00    -0.315 OA
BRANCH  26  27
HETATM   27  C18 SIM  6866      -0.232  34.567 231.760  1.00 20.00     0.267 C 
HETATM   28  O18 SIM  6866      -0.944  33.855 231.040  1.00 20.00    -0.264 OA
BRANCH  27  29
HETATM   29  C19 SIM  6866      -0.001  36.106 231.488  1.00 20.00     0.040 C 
HETATM   30  C22 SIM  6866       0.402  36.362 230.003  1.00 20.00     0.025 C 
HETATM   31  C23 SIM  6866       1.169  36.690 232.337  1.00 20.00     0.025 C 
BRANCH  29  32
HETATM   32  C20 SIM  6866      -1.286  36.931 231.812  1.00 20.00     0.014 C 
HETATM   33  C21 SIM  6866      -2.233  36.384 232.895  1.00 20.00     0.006 C 
ENDBRANCH  29  32
ENDBRANCH  27  29
ENDBRANCH  26  27
ENDBRANCH   9  26
TORSDOF 13
ENDMDL
MODEL 4
REMARK VINA RESULT:      -5.9      4.170      7.743
REMARK  13 active torsions:
REMARK  status: ('A' for Active; 'I' for Inactive)
REMARK    1  A    between atoms: C3_11  and  O3_3 
REMARK    2  A    between atoms: C5_13  and  O5_5 
REMARK    3  A    between atoms: C14_24  and  O14_7 
REMARK    4  A    between atoms: C18_27  and  O14_7 
REMARK    5  A    between atoms: C1_9  and  C2_10 
REMARK    6  A    between atoms: C2_10  and  C3_11 
REMARK    7  A    between atoms: C3_11  and  C4_12 
REMARK    8  A    between atoms: C4_12  and  C5_13 
REMARK    9  A    between atoms: C5_13  and  C6_14 
REMARK   10  A    between atoms: C6_14  and  C7_15 
REMARK   11  A    between atoms: C7_15  and  C8_16 
REMARK   12  A    between atoms: C18_27  and  C19_28 
REMARK   13  A    between atoms: C19_28  and  C20_29 
ROOT
HETATM    1  C8  SIM  6866      -2.258  40.442 228.914  1.00 20.00     0.004 C 
HETATM    2  C9  SIM  6866      -1.522  39.485 229.917  1.00 20.00     0.009 C 
HETATM    3  C10 SIM  6866      -1.753  38.019 229.481  1.00 20.00    -0.022 C 
HETATM    4  C11 SIM  6866      -2.851  37.596 228.800  1.00 20.00     0.004 C 
HETATM    5  C12 SIM  6866      -3.853  38.446 228.437  1.00 20.00    -0.055 C 
HETATM    6  C17 SIM  6866      -4.936  37.959 227.760  1.00 20.00    -0.015 C 
HETATM    7  C16 SIM  6866      -6.143  38.807 227.297  1.00 20.00     0.007 C 
HETATM    8  C15 SIM  6866      -6.034  40.313 227.705  1.00 20.00     0.041 C 
HETATM    9  C14 SIM  6866      -4.570  40.826 227.772  1.00 20.00     0.141 C 
HETATM   10  C13 SIM  6866      -3.768  39.974 228.795  1.00 20.00     0.052 C 
HETATM   11  C9A SIM  6866      -2.021  39.595 231.372  1.00 20.00     0.014 C 
HETATM   12  C24 SIM  6866      -6.273  38.674 225.774  1.00 20.00     0.014 C 
ENDROOT
BRANCH   1  13
HETATM   13  C7  SIM  6866      -2.079  41.963 229.262  1.00 20.00     0.009 C 
BRANCH  13  14
HETATM   14  C6  SIM  6866      -0.594  42.411 229.382  1.00 20.00     0.032 C 
BRANCH  14  15
HETATM   15  C5  SIM  6866      -0.204  43.664 228.563  1.00 20.00     0.120 C 
BRANCH  15  16
HETATM   16  C4  SIM  6866       1.123  43.467 227.832  1.00 20.00     0.064 C 
BRANCH  16  17
HETATM   17  C3  SIM  6866       2.209  42.777 228.645  1.00 20.00     0.130 C 
BRANCH  17  18
HETATM   18  C2  SIM  6866       3.263  43.771 229.145  1.00 20.00     0.144 C 
BRANCH  18  19
HETATM   19  C1  SIM  6866       3.295  43.916 230.656  1.00 20.00     0.175 C 
HETATM   20  O1A SIM  6866       2.048  44.091 231.186  1.00 20.00    -0.648 OA
HETATM   21  O1B SIM  6866       4.319  43.881 231.330  1.00 20.00    -0.648 OA
ENDBRANCH  18  19
ENDBRANCH  17  18
BRANCH  17  22
HETATM   22  O3  SIM  6866       2.832  41.829 227.792  1.00 20.00    -0.395 OA
ATOM     23  H3  SIM  6866       3.151  42.272 227.014  1.00  0.00     0.210 HD
ENDBRANCH  17  22
ENDBRANCH  16  17
ENDBRANCH  15  16
BRANCH  15  24
HETATM   24  O5  SIM  6866      -0.038  44.762 229.447  1.00 20.00    -0.395 OA
ATOM     25  H5  SIM  6866       0.017  45.547 228.915  1.00  0.00     0.210 HD
ENDBRANCH  15  24
ENDBRANCH  14  15
ENDBRANCH  13  14
ENDBRANCH   1  13
BRANCH   9  26
HETATM   26  O14 SIM  6866      -3.916  40.694 226.463  1.00 20.00    -0.315 OA
BRANCH  26  27
HETATM   27  C18 SIM  6866      -3.812  41.792 225.611  1.00 20.00     0.267 C 
HETATM   28  O18 SIM  6866      -3.576  42.948 225.983  1.00 20.00    -0.264 OA
BRANCH  27  29
HETATM   29  C19 SIM  6866      -4.024  41.402 224.095  1.00 20.00     0.040 C 
HETATM   30  C22 SIM  6866      -5.496  41.661 223.647  1.00 20.00     0.025 C 
HETATM   31  C23 SIM  6866      -3.776  39.885 223.831  1.00 20.00     0.025 C 
BRANCH  29  32
HETATM   32  C20 SIM  6866      -3.064  42.213 223.169  1.00 20.00     0.014 C 
HETATM   33  C21 SIM  6866      -3.696  43.207 222.178  1.00 20.00     0.006 C 
ENDBRANCH  29  32
ENDBRANCH  27  29
ENDBRANCH  26  27
ENDBRANCH   9  26
TORSDOF 13
ENDMDL
MODEL 5
REMARK VINA RESULT:      -5.9      1.919      4.130
REMARK  13 active torsions:
REMARK  status: ('A' for Active; 'I' for Inactive)
REMARK    1  A    between atoms: C3_11  and  O3_3 
REMARK    2  A    between atoms: C5_13  and  O5_5 
REMARK    3  A    between atoms: C14_24  and  O14_7 
REMARK    4  A    between atoms: C18_27  and  O14_7 
REMARK    5  A    between atoms: C1_9  and  C2_10 
REMARK    6  A    between atoms: C2_10  and  C3_11 
REMARK    7  A    between atoms: C3_11  and  C4_12 
REMARK    8  A    between atoms: C4_12  and  C5_13 
REMARK    9  A    between atoms: C5_13  and  C6_14 
REMARK   10  A    between atoms: C6_14  and  C7_15 
REMARK   11  A    between atoms: C7_15  and  C8_16 
REMARK   12  A    between atoms: C18_27  and  C19_28 
REMARK   13  A    between atoms: C19_28  and  C20_29 
ROOT
HETATM    1  C8  SIM  6866      -2.367  37.980 233.886  1.00 20.00     0.004 C 
HETATM    2  C9  SIM  6866      -3.917  37.766 233.781  1.00 20.00     0.009 C 
HETATM    3  C10 SIM  6866      -4.348  36.670 234.784  1.00 20.00    -0.022 C 
HETATM    4  C11 SIM  6866      -3.536  35.660 235.195  1.00 20.00     0.004 C 
HETATM    5  C12 SIM  6866      -2.254  35.532 234.751  1.00 20.00    -0.055 C 
HETATM    6  C17 SIM  6866      -1.489  34.489 235.194  1.00 20.00    -0.015 C 
HETATM    7  C16 SIM  6866      -0.027  34.221 234.767  1.00 20.00     0.007 C 
HETATM    8  C15 SIM  6866       0.514  35.257 233.728  1.00 20.00     0.041 C 
HETATM    9  C14 SIM  6866      -0.113  36.670 233.886  1.00 20.00     0.141 C 
HETATM   10  C13 SIM  6866      -1.658  36.571 233.733  1.00 20.00     0.052 C 
HETATM   11  C9A SIM  6866      -4.395  37.301 232.389  1.00 20.00     0.014 C 
HETATM   12  C24 SIM  6866       0.853  34.216 236.024  1.00 20.00     0.014 C 
ENDROOT
BRANCH   1  13
HETATM   13  C7  SIM  6866      -1.825  39.085 232.910  1.00 20.00     0.009 C 
BRANCH  13  14
HETATM   14  C6  SIM  6866      -1.367  38.537 231.529  1.00 20.00     0.032 C 
BRANCH  14  15
HETATM   15  C5  SIM  6866      -1.913  39.290 230.293  1.00 20.00     0.120 C 
BRANCH  15  16
HETATM   16  C4  SIM  6866      -0.846  40.181 229.660  1.00 20.00     0.064 C 
BRANCH  16  17
HETATM   17  C3  SIM  6866      -1.326  41.561 229.238  1.00 20.00     0.130 C 
BRANCH  17  18
HETATM   18  C2  SIM  6866      -0.355  42.225 228.255  1.00 20.00     0.144 C 
BRANCH  18  19
HETATM   19  C1  SIM  6866       0.994  42.560 228.864  1.00 20.00     0.175 C 
HETATM   20  O1A SIM  6866       2.032  42.049 228.138  1.00 20.00    -0.648 OA
HETATM   21  O1B SIM  6866       1.143  43.213 229.892  1.00 20.00    -0.648 OA
ENDBRANCH  18  19
ENDBRANCH  17  18
BRANCH  17  22
HETATM   22  O3  SIM  6866      -1.413  42.353 230.413  1.00 20.00    -0.395 OA
ATOM     23  H3  SIM  6866      -0.871  41.965 231.091  1.00  0.00     0.210 HD
ENDBRANCH  17  22
ENDBRANCH  16  17
ENDBRANCH  15  16
BRANCH  15  24
HETATM   24  O5  SIM  6866      -2.979  40.134 230.700  1.00 20.00    -0.395 OA
ATOM     25  H5  SIM  6866      -3.789  39.700 230.461  1.00  0.00     0.210 HD
ENDBRANCH  15  24
ENDBRANCH  14  15
ENDBRANCH  13  14
ENDBRANCH   1  13
BRANCH   9  26
HETATM   26  O14 SIM  6866       0.175  37.216 235.218  1.00 20.00    -0.315 OA
BRANCH  26  27
HETATM   27  C18 SIM  6866       1.289  38.027 235.423  1.00 20.00     0.267 C 
HETATM   28  O18 SIM  6866       2.022  38.453 234.521  1.00 20.00    -0.264 OA
BRANCH  27  29
HETATM   29  C19 SIM  6866       1.523  38.359 236.950  1.00 20.00     0.040 C 
HETATM   30  C22 SIM  6866       0.661  37.436 237.865  1.00 20.00     0.025 C 
HETATM   31  C23 SIM  6866       1.095  39.814 237.313  1.00 20.00     0.025 C 
BRANCH  29  32
HETATM   32  C20 SIM  6866       3.026  38.191 237.336  1.00 20.00     0.014 C 
HETATM   33  C21 SIM  6866       3.654  36.795 237.174  1.00 20.00     0.006 C 
ENDBRANCH  29  32
ENDBRANCH  27  29
ENDBRANCH  26  27
ENDBRANCH   9  26
TORSDOF 13
ENDMDL
MODEL 6
REMARK VINA RESULT:      -5.8      4.504      7.071
REMARK  13 active torsions:
REMARK  status: ('A' for Active; 'I' for Inactive)
REMARK    1  A    between atoms: C3_11  and  O3_3 
REMARK    2  A    between atoms: C5_13  and  O5_5 
REMARK    3  A    between atoms: C14_24  and  O14_7 
REMARK    4  A    between atoms: C18_27  and  O14_7 
REMARK    5  A    between atoms: C1_9  and  C2_10 
REMARK    6  A    between atoms: C2_10  and  C3_11 
REMARK    7  A    between atoms: C3_11  and  C4_12 
REMARK    8  A    between atoms: C4_12  and  C5_13 
REMARK    9  A    between atoms: C5_13  and  C6_14 
REMARK   10  A    between atoms: C6_14  and  C7_15 
REMARK   11  A    between atoms: C7_15  and  C8_16 
REMARK   12  A    between atoms: C18_27  and  C19_28 
REMARK   13  A    between atoms: C19_28  and  C20_29 
ROOT
HETATM    1  C8  SIM  6866       0.044  35.917 234.628  1.00 20.00     0.004 C 
HETATM    2  C9  SIM  6866      -0.212  36.128 233.095  1.00 20.00     0.009 C 
HETATM    3  C10 SIM  6866      -0.463  34.754 232.429  1.00 20.00    -0.022 C 
HETATM    4  C11 SIM  6866       0.054  33.585 232.891  1.00 20.00     0.004 C 
HETATM    5  C12 SIM  6866       0.846  33.527 233.998  1.00 20.00    -0.055 C 
HETATM    6  C17 SIM  6866       1.344  32.322 234.408  1.00 20.00    -0.015 C 
HETATM    7  C16 SIM  6866       2.258  32.115 235.638  1.00 20.00     0.007 C 
HETATM    8  C15 SIM  6866       2.603  33.445 236.383  1.00 20.00     0.041 C 
HETATM    9  C14 SIM  6866       1.476  34.511 236.292  1.00 20.00     0.141 C 
HETATM   10  C13 SIM  6866       1.190  34.836 234.798  1.00 20.00     0.052 C 
HETATM   11  C9A SIM  6866       0.970  36.772 232.342  1.00 20.00     0.014 C 
HETATM   12  C24 SIM  6866       1.570  31.131 236.594  1.00 20.00     0.014 C 
ENDROOT
BRANCH   1  13
HETATM   13  C7  SIM  6866       0.302  37.259 235.404  1.00 20.00     0.009 C 
BRANCH  13  14
HETATM   14  C6  SIM  6866       1.787  37.720 235.391  1.00 20.00     0.032 C 
BRANCH  14  15
HETATM   15  C5  SIM  6866       2.114  38.953 236.266  1.00 20.00     0.120 C 
BRANCH  15  16
HETATM   16  C4  SIM  6866       2.847  38.556 237.546  1.00 20.00     0.064 C 
BRANCH  16  17
HETATM   17  C3  SIM  6866       2.050  38.741 238.827  1.00 20.00     0.130 C 
BRANCH  17  18
HETATM   18  C2  SIM  6866       2.956  38.745 240.065  1.00 20.00     0.144 C 
BRANCH  18  19
HETATM   19  C1  SIM  6866       3.896  37.556 240.136  1.00 20.00     0.175 C 
HETATM   20  O1A SIM  6866       5.206  37.935 240.216  1.00 20.00    -0.648 OA
HETATM   21  O1B SIM  6866       3.529  36.385 240.121  1.00 20.00    -0.648 OA
ENDBRANCH  18  19
ENDBRANCH  17  18
BRANCH  17  22
HETATM   22  O3  SIM  6866       1.144  37.652 238.919  1.00 20.00    -0.395 OA
ATOM     23  H3  SIM  6866       1.346  37.020 238.238  1.00  0.00     0.210 HD
ENDBRANCH  17  22
ENDBRANCH  16  17
ENDBRANCH  15  16
BRANCH  15  24
HETATM   24  O5  SIM  6866       0.902  39.581 236.653  1.00 20.00    -0.395 OA
ATOM     25  H5  SIM  6866       0.405  39.747 235.860  1.00  0.00     0.210 HD
ENDBRANCH  15  24
ENDBRANCH  14  15
ENDBRANCH  13  14
ENDBRANCH   1  13
BRANCH   9  26
HETATM   26  O14 SIM  6866       0.235  34.001 236.888  1.00 20.00    -0.315 OA
BRANCH  26  27
HETATM   27  C18 SIM  6866      -0.321  34.626 238.003  1.00 20.00     0.267 C 
HETATM   28  O18 SIM  6866       0.322  34.992 238.995  1.00 20.00    -0.264 OA
BRANCH  27  29
HETATM   29  C19 SIM  6866      -1.882  34.829 237.867  1.00 20.00     0.040 C 
HETATM   30  C22 SIM  6866      -2.424  34.172 236.559  1.00 20.00     0.025 C 
HETATM   31  C23 SIM  6866      -2.278  36.334 237.764  1.00 20.00     0.025 C 
BRANCH  29  32
HETATM   32  C20 SIM  6866      -2.636  34.217 239.089  1.00 20.00     0.014 C 
HETATM   33  C21 SIM  6866      -3.755  35.056 239.733  1.00 20.00     0.006 C 
ENDBRANCH  29  32
ENDBRANCH  27  29
ENDBRANCH  26  27
ENDBRANCH   9  26
TORSDOF 13
ENDMDL
MODEL 7
REMARK VINA RESULT:      -5.8      3.041      6.469
REMARK  13 active torsions:
REMARK  status: ('A' for Active; 'I' for Inactive)
REMARK    1  A    between atoms: C3_11  and  O3_3 
REMARK    2  A    between atoms: C5_13  and  O5_5 
REMARK    3  A    between atoms: C14_24  and  O14_7 
REMARK    4  A    between atoms: C18_27  and  O14_7 
REMARK    5  A    between atoms: C1_9  and  C2_10 
REMARK    6  A    between atoms: C2_10  and  C3_11 
REMARK    7  A    between atoms: C3_11  and  C4_12 
REMARK    8  A    between atoms: C4_12  and  C5_13 
REMARK    9  A    between atoms: C5_13  and  C6_14 
REMARK   10  A    between atoms: C6_14  and  C7_15 
REMARK   11  A    between atoms: C7_15  and  C8_16 
REMARK   12  A    between atoms: C18_27  and  C19_28 
REMARK   13  A    between atoms: C19_28  and  C20_29 
ROOT
HETATM    1  C8  SIM  6866       1.555  37.546 236.525  1.00 20.00     0.004 C 
HETATM    2  C9  SIM  6866       2.092  38.947 236.984  1.00 20.00     0.009 C 
HETATM    3  C10 SIM  6866       3.059  38.754 238.175  1.00 20.00    -0.022 C 
HETATM    4  C11 SIM  6866       2.978  37.721 239.055  1.00 20.00     0.004 C 
HETATM    5  C12 SIM  6866       2.024  36.754 238.955  1.00 20.00    -0.055 C 
HETATM    6  C17 SIM  6866       1.988  35.745 239.876  1.00 20.00    -0.015 C 
HETATM    7  C16 SIM  6866       0.958  34.592 239.885  1.00 20.00     0.007 C 
HETATM    8  C15 SIM  6866      -0.094  34.693 238.733  1.00 20.00     0.041 C 
HETATM    9  C14 SIM  6866       0.464  35.367 237.449  1.00 20.00     0.141 C 
HETATM   10  C13 SIM  6866       0.968  36.797 237.792  1.00 20.00     0.052 C 
HETATM   11  C9A SIM  6866       0.991  39.916 237.463  1.00 20.00     0.014 C 
HETATM   12  C24 SIM  6866       1.718  33.261 239.798  1.00 20.00     0.014 C 
ENDROOT
BRANCH   1  13
HETATM   13  C7  SIM  6866       0.567  37.629 235.307  1.00 20.00     0.009 C 
BRANCH  13  14
HETATM   14  C6  SIM  6866       1.265  37.530 233.921  1.00 20.00     0.032 C 
BRANCH  14  15
HETATM   15  C5  SIM  6866       0.343  37.180 232.728  1.00 20.00     0.120 C 
BRANCH  15  16
HETATM   16  C4  SIM  6866      -1.133  37.306 233.104  1.00 20.00     0.064 C 
BRANCH  16  17
HETATM   17  C3  SIM  6866      -1.901  38.376 232.344  1.00 20.00     0.130 C 
BRANCH  17  18
HETATM   18  C2  SIM  6866      -1.232  38.715 231.007  1.00 20.00     0.144 C 
BRANCH  18  19
HETATM   19  C1  SIM  6866      -1.735  40.005 230.384  1.00 20.00     0.175 C 
HETATM   20  O1A SIM  6866      -2.762  39.792 229.509  1.00 20.00    -0.648 OA
HETATM   21  O1B SIM  6866      -1.276  41.115 230.633  1.00 20.00    -0.648 OA
ENDBRANCH  18  19
ENDBRANCH  17  18
BRANCH  17  22
HETATM   22  O3  SIM  6866      -1.924  39.537 233.161  1.00 20.00    -0.395 OA
ATOM     23  H3  SIM  6866      -1.825  40.305 232.611  1.00  0.00     0.210 HD
ENDBRANCH  17  22
ENDBRANCH  16  17
ENDBRANCH  15  16
BRANCH  15  24
HETATM   24  O5  SIM  6866       0.567  35.831 232.351  1.00 20.00    -0.395 OA
ATOM     25  H5  SIM  6866       0.284  35.740 231.448  1.00  0.00     0.210 HD
ENDBRANCH  15  24
ENDBRANCH  14  15
ENDBRANCH  13  14
ENDBRANCH   1  13
BRANCH   9  26
HETATM   26  O14 SIM  6866       1.600  34.603 236.918  1.00 20.00    -0.315 OA
BRANCH  26  27
HETATM   27  C18 SIM  6866       1.455  33.827 235.770  1.00 20.00     0.267 C 
HETATM   28  O18 SIM  6866       0.869  34.196 234.744  1.00 20.00    -0.264 OA
BRANCH  27  29
HETATM   29  C19 SIM  6866       2.131  32.406 235.912  1.00 20.00     0.040 C 
HETATM   30  C22 SIM  6866       2.363  31.751 234.515  1.00 20.00     0.025 C 
HETATM   31  C23 SIM  6866       1.235  31.397 236.694  1.00 20.00     0.025 C 
BRANCH  29  32
HETATM   32  C20 SIM  6866       3.499  32.508 236.656  1.00 20.00     0.014 C 
HETATM   33  C21 SIM  6866       4.063  31.227 237.296  1.00 20.00     0.006 C 
ENDBRANCH  29  32
ENDBRANCH  27  29
ENDBRANCH  26  27
ENDBRANCH   9  26
TORSDOF 13
ENDMDL
MODEL 8
REMARK VINA RESULT:      -5.8      3.441      7.056
REMARK  13 active torsions:
REMARK  status: ('A' for Active; 'I' for Inactive)
REMARK    1  A    between atoms: C3_11  and  O3_3 
REMARK    2  A    between atoms: C5_13  and  O5_5 
REMARK    3  A    between atoms: C14_24  and  O14_7 
REMARK    4  A    between atoms: C18_27  and  O14_7 
REMARK    5  A    between atoms: C1_9  and  C2_10 
REMARK    6  A    between atoms: C2_10  and  C3_11 
REMARK    7  A    between atoms: C3_11  and  C4_12 
REMARK    8  A    between atoms: C4_12  and  C5_13 
REMARK    9  A    between atoms: C5_13  and  C6_14 
REMARK   10  A    between atoms: C6_14  and  C7_15 
REMARK   11  A    between atoms: C7_15  and  C8_16 
REMARK   12  A    between atoms: C18_27  and  C19_28 
REMARK   13  A    between atoms: C19_28  and  C20_29 
ROOT
HETATM    1  C8  SIM  6866       1.049  37.595 237.123  1.00 20.00     0.004 C 
HETATM    2  C9  SIM  6866       1.359  39.079 237.529  1.00 20.00     0.009 C 
HETATM    3  C10 SIM  6866       2.674  39.118 238.342  1.00 20.00    -0.022 C 
HETATM    4  C11 SIM  6866       3.125  38.084 239.101  1.00 20.00     0.004 C 
HETATM    5  C12 SIM  6866       2.445  36.908 239.205  1.00 20.00    -0.055 C 
HETATM    6  C17 SIM  6866       2.945  35.908 239.991  1.00 20.00    -0.015 C 
HETATM    7  C16 SIM  6866       2.274  34.532 240.203  1.00 20.00     0.007 C 
HETATM    8  C15 SIM  6866       0.915  34.382 239.444  1.00 20.00     0.041 C 
HETATM    9  C14 SIM  6866       0.857  35.196 238.123  1.00 20.00     0.141 C 
HETATM   10  C13 SIM  6866       1.093  36.702 238.431  1.00 20.00     0.052 C 
HETATM   11  C9A SIM  6866       0.275  39.729 238.413  1.00 20.00     0.014 C 
HETATM   12  C24 SIM  6866       3.256  33.439 239.760  1.00 20.00     0.014 C 
ENDROOT
BRANCH   1  13
HETATM   13  C7  SIM  6866      -0.268  37.445 236.281  1.00 20.00     0.009 C 
BRANCH  13  14
HETATM   14  C6  SIM  6866      -0.251  38.232 234.940  1.00 20.00     0.032 C 
BRANCH  14  15
HETATM   15  C5  SIM  6866      -1.530  38.115 234.077  1.00 20.00     0.120 C 
BRANCH  15  16
HETATM   16  C4  SIM  6866      -1.350  37.112 232.938  1.00 20.00     0.064 C 
BRANCH  16  17
HETATM   17  C3  SIM  6866       0.017  37.132 232.274  1.00 20.00     0.130 C 
BRANCH  17  18
HETATM   18  C2  SIM  6866      -0.085  37.420 230.771  1.00 20.00     0.144 C 
BRANCH  18  19
HETATM   19  C1  SIM  6866       0.208  36.214 229.899  1.00 20.00     0.175 C 
HETATM   20  O1A SIM  6866      -0.885  35.410 229.741  1.00 20.00    -0.648 OA
HETATM   21  O1B SIM  6866       1.300  35.979 229.391  1.00 20.00    -0.648 OA
ENDBRANCH  18  19
ENDBRANCH  17  18
BRANCH  17  22
HETATM   22  O3  SIM  6866       0.595  35.849 232.463  1.00 20.00    -0.395 OA
ATOM     23  H3  SIM  6866       1.021  35.578 231.658  1.00  0.00     0.210 HD
ENDBRANCH  17  22
ENDBRANCH  16  17
ENDBRANCH  15  16
BRANCH  15  24
HETATM   24  O5  SIM  6866      -1.808  39.376 233.488  1.00 20.00    -0.395 OA
ATOM     25  H5  SIM  6866      -2.632  39.681 233.850  1.00  0.00     0.210 HD
ENDBRANCH  15  24
ENDBRANCH  14  15
ENDBRANCH  13  14
ENDBRANCH   1  13
BRANCH   9  26
HETATM   26  O14 SIM  6866       1.909  34.754 237.198  1.00 20.00    -0.315 OA
BRANCH  26  27
HETATM   27  C18 SIM  6866       1.576  34.177 235.974  1.00 20.00     0.267 C 
HETATM   28  O18 SIM  6866       1.016  34.773 235.046  1.00 20.00    -0.264 OA
BRANCH  27  29
HETATM   29  C19 SIM  6866       2.002  32.657 235.888  1.00 20.00     0.040 C 
HETATM   30  C22 SIM  6866       1.802  32.097 234.446  1.00 20.00     0.025 C 
HETATM   31  C23 SIM  6866       1.134  31.745 236.807  1.00 20.00     0.025 C 
BRANCH  29  32
HETATM   32  C20 SIM  6866       3.496  32.470 236.300  1.00 20.00     0.014 C 
HETATM   33  C21 SIM  6866       3.893  31.140 236.965  1.00 20.00     0.006 C 
ENDBRANCH  29  32
ENDBRANCH  27  29
ENDBRANCH  26  27
ENDBRANCH   9  26
TORSDOF 13
ENDMDL
MODEL 9
REMARK VINA RESULT:      -5.7      2.261      5.143
REMARK  13 active torsions:
REMARK  status: ('A' for Active; 'I' for Inactive)
REMARK    1  A    between atoms: C3_11  and  O3_3 
REMARK    2  A    between atoms: C5_13  and  O5_5 
REMARK    3  A    between atoms: C14_24  and  O14_7 
REMARK    4  A    between atoms: C18_27  and  O14_7 
REMARK    5  A    between atoms: C1_9  and  C2_10 
REMARK    6  A    between atoms: C2_10  and  C3_11 
REMARK    7  A    between atoms: C3_11  and  C4_12 
REMARK    8  A    between atoms: C4_12  and  C5_13 
REMARK    9  A    between atoms: C5_13  and  C6_14 
REMARK   10  A    between atoms: C6_14  and  C7_15 
REMARK   11  A    between atoms: C7_15  and  C8_16 
REMARK   12  A    between atoms: C18_27  and  C19_28 
REMARK   13  A    between atoms: C19_28  and  C20_29 
ROOT
HETATM    1  C8  SIM  6866       0.648  37.284 235.579  1.00 20.00     0.004 C 
HETATM    2  C9  SIM  6866       1.231  38.567 236.269  1.00 20.00     0.009 C 
HETATM    3  C10 SIM  6866       2.738  38.355 236.544  1.00 20.00    -0.022 C 
HETATM    4  C11 SIM  6866       3.304  37.137 236.757  1.00 20.00     0.004 C 
HETATM    5  C12 SIM  6866       2.577  35.985 236.741  1.00 20.00    -0.055 C 
HETATM    6  C17 SIM  6866       3.201  34.791 236.971  1.00 20.00    -0.015 C 
HETATM    7  C16 SIM  6866       2.497  33.415 236.989  1.00 20.00     0.007 C 
HETATM    8  C15 SIM  6866       0.956  33.505 236.744  1.00 20.00     0.041 C 
HETATM    9  C14 SIM  6866       0.547  34.691 235.829  1.00 20.00     0.141 C 
HETATM   10  C13 SIM  6866       1.030  36.026 236.464  1.00 20.00     0.052 C 
HETATM   11  C9A SIM  6866       0.579  38.903 237.625  1.00 20.00     0.014 C 
HETATM   12  C24 SIM  6866       3.154  32.519 235.930  1.00 20.00     0.014 C 
ENDROOT
BRANCH   1  13
HETATM   13  C7  SIM  6866      -0.882  37.400 235.245  1.00 20.00     0.009 C 
BRANCH  13  14
HETATM   14  C6  SIM  6866      -1.225  38.544 234.250  1.00 20.00     0.032 C 
BRANCH  14  15
HETATM   15  C5  SIM  6866      -2.259  38.193 233.154  1.00 20.00     0.120 C 
BRANCH  15  16
HETATM   16  C4  SIM  6866      -1.974  38.941 231.853  1.00 20.00     0.064 C 
BRANCH  16  17
HETATM   17  C3  SIM  6866      -2.530  38.285 230.598  1.00 20.00     0.130 C 
BRANCH  17  18
HETATM   18  C2  SIM  6866      -2.455  39.221 229.386  1.00 20.00     0.144 C 
BRANCH  18  19
HETATM   19  C1  SIM  6866      -3.231  40.513 229.565  1.00 20.00     0.175 C 
HETATM   20  O1A SIM  6866      -2.436  41.617 229.443  1.00 20.00    -0.648 OA
HETATM   21  O1B SIM  6866      -4.435  40.568 229.794  1.00 20.00    -0.648 OA
ENDBRANCH  18  19
ENDBRANCH  17  18
BRANCH  17  22
HETATM   22  O3  SIM  6866      -3.890  37.969 230.857  1.00 20.00    -0.395 OA
ATOM     23  H3  SIM  6866      -3.950  37.508 231.686  1.00  0.00     0.210 HD
ENDBRANCH  17  22
ENDBRANCH  16  17
ENDBRANCH  15  16
BRANCH  15  24
HETATM   24  O5  SIM  6866      -3.550  38.586 233.592  1.00 20.00    -0.395 OA
ATOM     25  H5  SIM  6866      -4.176  38.252 232.960  1.00  0.00     0.210 HD
ENDBRANCH  15  24
ENDBRANCH  14  15
ENDBRANCH  13  14
ENDBRANCH   1  13
BRANCH   9  26
HETATM   26  O14 SIM  6866       1.178  34.565 234.509  1.00 20.00    -0.315 OA
BRANCH  26  27
HETATM   27  C18 SIM  6866       0.600  33.767 233.523  1.00 20.00     0.267 C 
HETATM   28  O18 SIM  6866       0.627  32.530 233.517  1.00 20.00    -0.264 OA
BRANCH  27  29
HETATM   29  C19 SIM  6866      -0.111  34.618 232.398  1.00 20.00     0.040 C 
HETATM   30  C22 SIM  6866      -1.612  34.868 232.744  1.00 20.00     0.025 C 
HETATM   31  C23 SIM  6866      -0.124  33.888 231.020  1.00 20.00     0.025 C 
BRANCH  29  32
HETATM   32  C20 SIM  6866       0.598  35.995 232.204  1.00 20.00     0.014 C 
HETATM   33  C21 SIM  6866       0.782  36.509 230.765  1.00 20.00     0.006 C 
ENDBRANCH  29  32
ENDBRANCH  27  29
ENDBRANCH  26  27
ENDBRANCH   9  26
TORSDOF 13
ENDMDL
