MODEL 1
REMARK VINA RESULT:      -7.3      0.000      0.000
REMARK  6 active torsions:
REMARK  status: ('A' for Active; 'I' for Inactive)
REMARK    1  A    between atoms: C2_3  and  C21_4 
REMARK       I    between atoms: C21_4  and  N21_6 
REMARK    2  A    between atoms: C4_11  and  N4_12 
REMARK    3  A    between atoms: C6_18  and  O6_20 
REMARK    4  A    between atoms: C10_26  and  O10_27 
REMARK    5  A    between atoms: C12_33  and  O12_34 
REMARK    6  A    between atoms: C1C_36  and  O1C_37 
ROOT
HETATM    1  C1  TAC  7101      -0.337  36.541 232.725  1.00 20.00     0.210 C 
HETATM    2  O1  TAC  7101       0.753  36.186 232.208  1.00 20.00    -0.288 OA
HETATM    3  C2  TAC  7101      -1.200  37.539 232.053  1.00 20.00     0.129 C 
HETATM    4  C3  TAC  7101      -2.410  37.992 232.697  1.00 20.00     0.202 C 
HETATM    5  O3  TAC  7101      -3.103  38.883 232.179  1.00 20.00    -0.290 OA
HETATM    6  C4  TAC  7101      -2.877  37.418 234.077  1.00 20.00     0.304 C 
HETATM    7  C41 TAC  7101      -1.724  36.831 234.926  1.00 20.00     0.077 C 
HETATM    8  C5  TAC  7101      -0.869  38.007 235.492  1.00 20.00     0.024 C 
HETATM    9  C51 TAC  7101       0.183  37.567 236.484  1.00 20.00     0.065 C 
HETATM   10  C6  TAC  7101       1.264  38.648 236.767  1.00 20.00     0.090 C 
HETATM   11  C62 TAC  7101       0.660  40.028 237.048  1.00 20.00     0.052 C 
HETATM   12  C61 TAC  7101       2.097  38.058 237.964  1.00 20.00    -0.007 A 
HETATM   13  C7  TAC  7101       2.486  38.840 239.087  1.00 20.00     0.011 A 
HETATM   14  C8  TAC  7101       3.221  38.260 240.136  1.00 20.00     0.003 A 
HETATM   15  C9  TAC  7101       3.587  36.891 240.098  1.00 20.00     0.037 A 
HETATM   16  C10 TAC  7101       3.220  36.074 238.998  1.00 20.00     0.080 A 
HETATM   17  C1A TAC  7101       2.468  36.646 237.915  1.00 20.00     0.057 A 
HETATM   18  C11 TAC  7101       2.058  35.840 236.782  1.00 20.00     0.194 C 
HETATM   19  O11 TAC  7101       2.711  34.790 236.480  1.00 20.00    -0.287 OA
HETATM   20  C1B TAC  7101       0.913  36.232 236.032  1.00 20.00     0.033 C 
HETATM   21  C12 TAC  7101       0.446  35.450 234.924  1.00 20.00     0.097 C 
HETATM   22  C1C TAC  7101      -0.788  35.865 234.070  1.00 20.00     0.177 C 
ENDROOT
BRANCH   3  23
HETATM   23  C21 TAC  7101      -0.797  38.129 230.734  1.00 20.00     0.256 C 
HETATM   24  N21 TAC  7101      -0.443  37.286 229.742  1.00 20.00    -0.366 N 
ATOM     25 2H21 TAC  7101      -0.458  36.275 229.881  1.00  0.00     0.159 HD
ATOM     26 1H21 TAC  7101      -0.170  37.687 228.845  1.00  0.00     0.159 HD
HETATM   27  O21 TAC  7101      -0.778  39.387 230.560  1.00 20.00    -0.268 OA
ENDBRANCH   3  23
BRANCH  22  28
HETATM   28  O1C TAC  7101      -1.510  34.685 233.737  1.00 20.00    -0.374 OA
ATOM     29  H1C TAC  7101      -0.969  34.173 233.149  1.00  0.00     0.211 HD
ENDBRANCH  22  28
BRANCH   6  30
HETATM   30  N4  TAC  7101      -4.181  36.697 233.811  1.00 20.00     0.092 N 
HETATM   31  C42 TAC  7101      -4.438  35.505 234.681  1.00 20.00     0.310 C 
HETATM   32  C43 TAC  7101      -5.313  37.654 234.014  1.00 20.00     0.310 C 
ENDBRANCH   6  30
BRANCH  21  33
HETATM   33  O12 TAC  7101       1.079  34.312 234.577  1.00 20.00    -0.361 OA
ATOM     34  H12 TAC  7101       1.659  34.350 233.826  1.00  0.00     0.217 HD
ENDBRANCH  21  33
BRANCH  10  35
HETATM   35  O6  TAC  7101       2.117  38.789 235.608  1.00 20.00    -0.385 OA
ATOM     36  H6  TAC  7101       3.012  38.580 235.848  1.00  0.00     0.211 HD
ENDBRANCH  10  35
BRANCH  16  37
HETATM   37  O10 TAC  7101       3.574  34.744 238.965  1.00 20.00    -0.360 OA
ATOM     38  H10 TAC  7101       4.003  34.378 238.201  1.00  0.00     0.217 HD
ENDBRANCH  16  37
TORSDOF 6
ENDMDL
MODEL 2
REMARK VINA RESULT:      -6.8      2.369      4.774
REMARK  6 active torsions:
REMARK  status: ('A' for Active; 'I' for Inactive)
REMARK    1  A    between atoms: C2_3  and  C21_4 
REMARK       I    between atoms: C21_4  and  N21_6 
REMARK    2  A    between atoms: C4_11  and  N4_12 
REMARK    3  A    between atoms: C6_18  and  O6_20 
REMARK    4  A    between atoms: C10_26  and  O10_27 
REMARK    5  A    between atoms: C12_33  and  O12_34 
REMARK    6  A    between atoms: C1C_36  and  O1C_37 
ROOT
HETATM    1  C1  TAC  7101      -3.028  36.730 231.956  1.00 20.00     0.210 C 
HETATM    2  O1  TAC  7101      -3.667  37.376 232.825  1.00 20.00    -0.288 OA
HETATM    3  C2  TAC  7101      -3.669  35.613 231.226  1.00 20.00     0.129 C 
HETATM    4  C3  TAC  7101      -2.898  34.832 230.286  1.00 20.00     0.202 C 
HETATM    5  O3  TAC  7101      -3.402  33.847 229.724  1.00 20.00    -0.290 OA
HETATM    6  C4  TAC  7101      -1.401  35.165 229.969  1.00 20.00     0.304 C 
HETATM    7  C41 TAC  7101      -0.684  35.940 231.100  1.00 20.00     0.077 C 
HETATM    8  C5  TAC  7101      -0.412  34.961 232.283  1.00 20.00     0.024 C 
HETATM    9  C51 TAC  7101       0.444  35.557 233.377  1.00 20.00     0.065 C 
HETATM   10  C6  TAC  7101       0.415  34.746 234.704  1.00 20.00     0.090 C 
HETATM   11  C62 TAC  7101       0.620  33.245 234.483  1.00 20.00     0.052 C 
HETATM   12  C61 TAC  7101       1.525  35.420 235.593  1.00 20.00    -0.007 A 
HETATM   13  C7  TAC  7101       2.466  34.665 236.346  1.00 20.00     0.011 A 
HETATM   14  C8  TAC  7101       3.445  35.317 237.117  1.00 20.00     0.003 A 
HETATM   15  C9  TAC  7101       3.516  36.732 237.157  1.00 20.00     0.037 A 
HETATM   16  C10 TAC  7101       2.598  37.525 236.421  1.00 20.00     0.080 A 
HETATM   17  C1A TAC  7101       1.590  36.878 235.627  1.00 20.00     0.057 A 
HETATM   18  C11 TAC  7101       0.644  37.653 234.846  1.00 20.00     0.194 C 
HETATM   19  O11 TAC  7101       0.371  38.849 235.183  1.00 20.00    -0.287 OA
HETATM   20  C1B TAC  7101       0.047  37.060 233.697  1.00 20.00     0.033 C 
HETATM   21  C12 TAC  7101      -0.868  37.795 232.871  1.00 20.00     0.097 C 
HETATM   22  C1C TAC  7101      -1.555  37.168 231.624  1.00 20.00     0.177 C 
ENDROOT
BRANCH   3  23
HETATM   23  C21 TAC  7101      -5.098  35.245 231.497  1.00 20.00     0.256 C 
HETATM   24  N21 TAC  7101      -5.341  34.136 232.225  1.00 20.00    -0.366 N 
ATOM     25 2H21 TAC  7101      -4.576  33.568 232.589  1.00  0.00     0.159 HD
ATOM     26 1H21 TAC  7101      -6.313  33.887 232.410  1.00  0.00     0.159 HD
HETATM   27  O21 TAC  7101      -6.051  35.953 231.045  1.00 20.00    -0.268 OA
ENDBRANCH   3  23
BRANCH  22  28
HETATM   28  O1C TAC  7101      -1.621  38.163 230.609  1.00 20.00    -0.374 OA
ATOM     29  H1C TAC  7101      -0.822  38.107 230.100  1.00  0.00     0.211 HD
ENDBRANCH  22  28
BRANCH   6  30
HETATM   30  N4  TAC  7101      -1.363  35.572 228.511  1.00 20.00     0.092 N 
HETATM   31  C42 TAC  7101      -2.449  36.511 228.085  1.00 20.00     0.310 C 
HETATM   32  C43 TAC  7101      -0.055  36.241 228.229  1.00 20.00     0.310 C 
ENDBRANCH   6  30
BRANCH  21  33
HETATM   33  O12 TAC  7101      -1.171  39.075 233.162  1.00 20.00    -0.361 OA
ATOM     34  H12 TAC  7101      -0.460  39.705 233.140  1.00  0.00     0.217 HD
ENDBRANCH  21  33
BRANCH  10  35
HETATM   35  O6  TAC  7101      -0.875  34.909 235.336  1.00 20.00    -0.385 OA
ATOM     36  H6  TAC  7101      -1.555  34.597 234.751  1.00  0.00     0.211 HD
ENDBRANCH  10  35
BRANCH  16  37
HETATM   37  O10 TAC  7101       2.671  38.898 236.460  1.00 20.00    -0.360 OA
ATOM     38  H10 TAC  7101       2.899  39.392 235.681  1.00  0.00     0.217 HD
ENDBRANCH  16  37
TORSDOF 6
ENDMDL
MODEL 3
REMARK VINA RESULT:      -6.8      3.103      7.339
REMARK  6 active torsions:
REMARK  status: ('A' for Active; 'I' for Inactive)
REMARK    1  A    between atoms: C2_3  and  C21_4 
REMARK       I    between atoms: C21_4  and  N21_6 
REMARK    2  A    between atoms: C4_11  and  N4_12 
REMARK    3  A    between atoms: C6_18  and  O6_20 
REMARK    4  A    between atoms: C10_26  and  O10_27 
REMARK    5  A    between atoms: C12_33  and  O12_34 
REMARK    6  A    between atoms: C1C_36  and  O1C_37 
ROOT
HETATM    1  C1  TAC  7101       0.243  37.142 237.943  1.00 20.00     0.210 C 
HETATM    2  O1  TAC  7101      -0.462  38.144 238.228  1.00 20.00    -0.288 OA
HETATM    3  C2  TAC  7101       1.696  37.138 238.225  1.00 20.00     0.129 C 
HETATM    4  C3  TAC  7101       2.503  36.011 237.821  1.00 20.00     0.202 C 
HETATM    5  O3  TAC  7101       3.734  36.028 237.984  1.00 20.00    -0.290 OA
HETATM    6  C4  TAC  7101       1.878  34.751 237.133  1.00 20.00     0.304 C 
HETATM    7  C41 TAC  7101       0.538  35.039 236.414  1.00 20.00     0.077 C 
HETATM    8  C5  TAC  7101       0.832  35.840 235.108  1.00 20.00     0.024 C 
HETATM    9  C51 TAC  7101      -0.381  36.026 234.227  1.00 20.00     0.065 C 
HETATM   10  C6  TAC  7101      -0.196  37.115 233.132  1.00 20.00     0.090 C 
HETATM   11  C62 TAC  7101       1.126  36.970 232.372  1.00 20.00     0.052 C 
HETATM   12  C61 TAC  7101      -1.475  36.973 232.225  1.00 20.00    -0.007 A 
HETATM   13  C7  TAC  7101      -1.411  36.989 230.804  1.00 20.00     0.011 A 
HETATM   14  C8  TAC  7101      -2.583  36.847 230.040  1.00 20.00     0.003 A 
HETATM   15  C9  TAC  7101      -3.845  36.685 230.666  1.00 20.00     0.037 A 
HETATM   16  C10 TAC  7101      -3.954  36.662 232.080  1.00 20.00     0.080 A 
HETATM   17  C1A TAC  7101      -2.769  36.805 232.880  1.00 20.00     0.057 A 
HETATM   18  C11 TAC  7101      -2.837  36.769 234.328  1.00 20.00     0.194 C 
HETATM   19  O11 TAC  7101      -3.920  37.077 234.922  1.00 20.00    -0.287 OA
HETATM   20  C1B TAC  7101      -1.685  36.371 235.064  1.00 20.00     0.033 C 
HETATM   21  C12 TAC  7101      -1.710  36.286 236.497  1.00 20.00     0.097 C 
HETATM   22  C1C TAC  7101      -0.461  35.877 237.331  1.00 20.00     0.177 C 
ENDROOT
BRANCH   3  23
HETATM   23  C21 TAC  7101       2.349  38.322 238.875  1.00 20.00     0.256 C 
HETATM   24  N21 TAC  7101       2.585  38.269 240.202  1.00 20.00    -0.366 N 
ATOM     25 2H21 TAC  7101       2.335  37.444 240.747  1.00  0.00     0.159 HD
ATOM     26 1H21 TAC  7101       3.029  39.074 240.643  1.00  0.00     0.159 HD
HETATM   27  O21 TAC  7101       2.661  39.350 238.196  1.00 20.00    -0.268 OA
ENDBRANCH   3  23
BRANCH  22  28
HETATM   28  O1C TAC  7101      -0.900  35.064 238.412  1.00 20.00    -0.374 OA
ATOM     29  H1C TAC  7101      -0.385  34.266 238.400  1.00  0.00     0.211 HD
ENDBRANCH  22  28
BRANCH   6  30
HETATM   30  N4  TAC  7101       2.090  33.601 238.093  1.00 20.00     0.092 N 
HETATM   31  C42 TAC  7101       1.036  32.537 238.056  1.00 20.00     0.310 C 
HETATM   32  C43 TAC  7101       3.399  32.947 237.783  1.00 20.00     0.310 C 
ENDBRANCH   6  30
BRANCH  21  33
HETATM   33  O12 TAC  7101      -2.838  36.570 237.177  1.00 20.00    -0.361 OA
ATOM     34  H12 TAC  7101      -3.051  36.012 237.914  1.00  0.00     0.217 HD
ENDBRANCH  21  33
BRANCH  10  35
HETATM   35  O6  TAC  7101      -0.187  38.421 233.752  1.00 20.00    -0.385 OA
ATOM     36  H6  TAC  7101      -0.956  38.515 234.302  1.00  0.00     0.211 HD
ENDBRANCH  10  35
BRANCH  16  37
HETATM   37  O10 TAC  7101      -5.180  36.501 232.685  1.00 20.00    -0.360 OA
ATOM     38  H10 TAC  7101      -5.516  35.632 232.869  1.00  0.00     0.217 HD
ENDBRANCH  16  37
TORSDOF 6
ENDMDL
MODEL 4
REMARK VINA RESULT:      -6.4      2.951      7.110
REMARK  6 active torsions:
REMARK  status: ('A' for Active; 'I' for Inactive)
REMARK    1  A    between atoms: C2_3  and  C21_4 
REMARK       I    between atoms: C21_4  and  N21_6 
REMARK    2  A    between atoms: C4_11  and  N4_12 
REMARK    3  A    between atoms: C6_18  and  O6_20 
REMARK    4  A    between atoms: C10_26  and  O10_27 
REMARK    5  A    between atoms: C12_33  and  O12_34 
REMARK    6  A    between atoms: C1C_36  and  O1C_37 
ROOT
HETATM    1  C1  TAC  7101      -0.611  34.890 236.376  1.00 20.00     0.210 C 
HETATM    2  O1  TAC  7101      -1.398  33.916 236.264  1.00 20.00    -0.288 OA
HETATM    3  C2  TAC  7101      -0.894  35.980 237.337  1.00 20.00     0.129 C 
HETATM    4  C3  TAC  7101      -0.020  37.128 237.398  1.00 20.00     0.202 C 
HETATM    5  O3  TAC  7101      -0.288  38.083 238.145  1.00 20.00    -0.290 OA
HETATM    6  C4  TAC  7101       1.264  37.238 236.509  1.00 20.00     0.304 C 
HETATM    7  C41 TAC  7101       1.200  36.384 235.220  1.00 20.00     0.077 C 
HETATM    8  C5  TAC  7101       0.218  37.065 234.217  1.00 20.00     0.024 C 
HETATM    9  C51 TAC  7101       0.208  36.420 232.850  1.00 20.00     0.065 C 
HETATM   10  C6  TAC  7101      -1.007  36.837 231.973  1.00 20.00     0.090 C 
HETATM   11  C62 TAC  7101      -1.237  38.351 231.964  1.00 20.00     0.052 C 
HETATM   12  C61 TAC  7101      -0.688  36.230 230.557  1.00 20.00    -0.007 A 
HETATM   13  C7  TAC  7101      -0.870  36.962 229.351  1.00 20.00     0.011 A 
HETATM   14  C8  TAC  7101      -0.560  36.375 228.111  1.00 20.00     0.003 A 
HETATM   15  C9  TAC  7101      -0.059  35.051 228.037  1.00 20.00     0.037 A 
HETATM   16  C10 TAC  7101       0.139  34.285 229.215  1.00 20.00     0.080 A 
HETATM   17  C1A TAC  7101      -0.172  34.865 230.492  1.00 20.00     0.057 A 
HETATM   18  C11 TAC  7101       0.034  34.122 231.720  1.00 20.00     0.194 C 
HETATM   19  O11 TAC  7101       0.036  32.849 231.700  1.00 20.00    -0.287 OA
HETATM   20  C1B TAC  7101       0.247  34.835 232.933  1.00 20.00     0.033 C 
HETATM   21  C12 TAC  7101       0.490  34.147 234.169  1.00 20.00     0.097 C 
HETATM   22  C1C TAC  7101       0.703  34.898 235.515  1.00 20.00     0.177 C 
ENDROOT
BRANCH   3  23
HETATM   23  C21 TAC  7101      -2.115  35.931 238.208  1.00 20.00     0.256 C 
HETATM   24  N21 TAC  7101      -2.145  35.029 239.210  1.00 20.00    -0.366 N 
ATOM     25 2H21 TAC  7101      -1.356  34.404 239.378  1.00  0.00     0.159 HD
ATOM     26 1H21 TAC  7101      -2.975  34.996 239.802  1.00  0.00     0.159 HD
HETATM   27  O21 TAC  7101      -3.098  36.709 237.998  1.00 20.00    -0.268 OA
ENDBRANCH   3  23
BRANCH  22  28
HETATM   28  O1C TAC  7101       1.705  34.206 236.252  1.00 20.00    -0.374 OA
ATOM     29  H1C TAC  7101       2.454  34.784 236.331  1.00  0.00     0.211 HD
ENDBRANCH  22  28
BRANCH   6  30
HETATM   30  N4  TAC  7101       2.437  37.235 237.466  1.00 20.00     0.092 N 
HETATM   31  C42 TAC  7101       2.379  36.193 238.541  1.00 20.00     0.310 C 
HETATM   32  C43 TAC  7101       3.695  37.009 236.689  1.00 20.00     0.310 C 
ENDBRANCH   6  30
BRANCH  21  33
HETATM   33  O12 TAC  7101       0.534  32.801 234.202  1.00 20.00    -0.361 OA
ATOM     34  H12 TAC  7101       0.251  32.338 233.423  1.00  0.00     0.217 HD
ENDBRANCH  21  33
BRANCH  10  35
HETATM   35  O6  TAC  7101      -2.209  36.229 232.499  1.00 20.00    -0.385 OA
ATOM     36  H6  TAC  7101      -1.975  35.584 233.156  1.00  0.00     0.211 HD
ENDBRANCH  10  35
BRANCH  16  37
HETATM   37  O10 TAC  7101       0.628  33.001 229.140  1.00 20.00    -0.360 OA
ATOM     38  H10 TAC  7101       0.554  32.413 229.883  1.00  0.00     0.217 HD
ENDBRANCH  16  37
TORSDOF 6
ENDMDL
MODEL 5
REMARK VINA RESULT:      -6.3      2.209      3.476
REMARK  6 active torsions:
REMARK  status: ('A' for Active; 'I' for Inactive)
REMARK    1  A    between atoms: C2_3  and  C21_4 
REMARK       I    between atoms: C21_4  and  N21_6 
REMARK    2  A    between atoms: C4_11  and  N4_12 
REMARK    3  A    between atoms: C6_18  and  O6_20 
REMARK    4  A    between atoms: C10_26  and  O10_27 
REMARK    5  A    between atoms: C12_33  and  O12_34 
REMARK    6  A    between atoms: C1C_36  and  O1C_37 
ROOT
HETATM    1  C1  TAC  7101      -1.339  37.773 233.442  1.00 20.00     0.210 C 
HETATM    2  O1  TAC  7101      -1.155  38.971 233.778  1.00 20.00    -0.288 OA
HETATM    3  C2  TAC  7101      -2.662  37.324 232.949  1.00 20.00     0.129 C 
HETATM    4  C3  TAC  7101      -2.878  35.930 232.641  1.00 20.00     0.202 C 
HETATM    5  O3  TAC  7101      -4.002  35.529 232.299  1.00 20.00    -0.290 OA
HETATM    6  C4  TAC  7101      -1.732  34.870 232.761  1.00 20.00     0.304 C 
HETATM    7  C41 TAC  7101      -0.611  35.277 233.746  1.00 20.00     0.077 C 
HETATM    8  C5  TAC  7101      -1.149  35.137 235.203  1.00 20.00     0.024 C 
HETATM    9  C51 TAC  7101      -0.088  35.337 236.261  1.00 20.00     0.065 C 
HETATM   10  C6  TAC  7101      -0.665  35.567 237.687  1.00 20.00     0.090 C 
HETATM   11  C62 TAC  7101      -1.750  34.551 238.057  1.00 20.00     0.052 C 
HETATM   12  C61 TAC  7101       0.597  35.526 238.626  1.00 20.00    -0.007 A 
HETATM   13  C7  TAC  7101       0.612  34.816 239.858  1.00 20.00     0.011 A 
HETATM   14  C8  TAC  7101       1.771  34.802 240.655  1.00 20.00     0.003 A 
HETATM   15  C9  TAC  7101       2.942  35.490 240.249  1.00 20.00     0.037 A 
HETATM   16  C10 TAC  7101       2.971  36.211 239.027  1.00 20.00     0.080 A 
HETATM   17  C1A TAC  7101       1.798  36.237 238.198  1.00 20.00     0.057 A 
HETATM   18  C11 TAC  7101       1.794  36.947 236.933  1.00 20.00     0.194 C 
HETATM   19  O11 TAC  7101       2.603  37.912 236.743  1.00 20.00    -0.287 OA
HETATM   20  C1B TAC  7101       0.888  36.538 235.914  1.00 20.00     0.033 C 
HETATM   21  C12 TAC  7101       0.868  37.185 234.633  1.00 20.00     0.097 C 
HETATM   22  C1C TAC  7101      -0.126  36.777 233.507  1.00 20.00     0.177 C 
ENDROOT
BRANCH   3  23
HETATM   23  C21 TAC  7101      -3.798  38.296 232.823  1.00 20.00     0.256 C 
HETATM   24  N21 TAC  7101      -3.685  39.291 231.920  1.00 20.00    -0.366 N 
ATOM     25 2H21 TAC  7101      -2.856  39.376 231.332  1.00  0.00     0.159 HD
ATOM     26 1H21 TAC  7101      -4.457  39.952 231.834  1.00  0.00     0.159 HD
HETATM   27  O21 TAC  7101      -4.831  38.191 233.555  1.00 20.00    -0.268 OA
ENDBRANCH   3  23
BRANCH  22  28
HETATM   28  O1C TAC  7101       0.562  36.855 232.263  1.00 20.00    -0.374 OA
ATOM     29  H1C TAC  7101      -0.091  36.853 231.573  1.00  0.00     0.211 HD
ENDBRANCH  22  28
BRANCH   6  30
HETATM   30  N4  TAC  7101      -1.480  34.366 231.356  1.00 20.00     0.092 N 
HETATM   31  C42 TAC  7101      -1.316  35.433 230.317  1.00 20.00     0.310 C 
HETATM   32  C43 TAC  7101      -0.230  33.543 231.354  1.00 20.00     0.310 C 
ENDBRANCH   6  30
BRANCH  21  33
HETATM   33  O12 TAC  7101       1.723  38.192 234.364  1.00 20.00    -0.361 OA
ATOM     34  H12 TAC  7101       1.608  39.000 234.850  1.00  0.00     0.217 HD
ENDBRANCH  21  33
BRANCH  10  35
HETATM   35  O6  TAC  7101      -1.273  36.878 237.752  1.00 20.00    -0.385 OA
ATOM     36  H6  TAC  7101      -2.159  36.798 238.086  1.00  0.00     0.211 HD
ENDBRANCH  10  35
BRANCH  16  37
HETATM   37  O10 TAC  7101       4.110  36.875 238.635  1.00 20.00    -0.360 OA
ATOM     38  H10 TAC  7101       4.224  37.797 238.835  1.00  0.00     0.217 HD
ENDBRANCH  16  37
TORSDOF 6
ENDMDL
MODEL 6
REMARK VINA RESULT:      -6.3      3.546      7.151
REMARK  6 active torsions:
REMARK  status: ('A' for Active; 'I' for Inactive)
REMARK    1  A    between atoms: C2_3  and  C21_4 
REMARK       I    between atoms: C21_4  and  N21_6 
REMARK    2  A    between atoms: C4_11  and  N4_12 
REMARK    3  A    between atoms: C6_18  and  O6_20 
REMARK    4  A    between atoms: C10_26  and  O10_27 
REMARK    5  A    between atoms: C12_33  and  O12_34 
REMARK    6  A    between atoms: C1C_36  and  O1C_37 
ROOT
HETATM    1  C1  TAC  7101       0.841  33.767 237.075  1.00 20.00     0.210 C 
HETATM    2  O1  TAC  7101       0.538  34.485 238.062  1.00 20.00    -0.288 OA
HETATM    3  C2  TAC  7101       2.229  33.286 236.891  1.00 20.00     0.129 C 
HETATM    4  C3  TAC  7101       2.575  32.527 235.712  1.00 20.00     0.202 C 
HETATM    5  O3  TAC  7101       3.751  32.182 235.509  1.00 20.00    -0.290 OA
HETATM    6  C4  TAC  7101       1.508  32.144 234.632  1.00 20.00     0.304 C 
HETATM    7  C41 TAC  7101       0.283  33.089 234.609  1.00 20.00     0.077 C 
HETATM    8  C5  TAC  7101       0.711  34.450 233.977  1.00 20.00     0.024 C 
HETATM    9  C51 TAC  7101      -0.443  35.394 233.736  1.00 20.00     0.065 C 
HETATM   10  C6  TAC  7101      -0.003  36.860 233.461  1.00 20.00     0.090 C 
HETATM   11  C62 TAC  7101       1.124  36.955 232.428  1.00 20.00     0.052 C 
HETATM   12  C61 TAC  7101      -1.329  37.589 233.031  1.00 20.00    -0.007 A 
HETATM   13  C7  TAC  7101      -1.390  38.481 231.924  1.00 20.00     0.011 A 
HETATM   14  C8  TAC  7101      -2.604  39.097 231.575  1.00 20.00     0.003 A 
HETATM   15  C9  TAC  7101      -3.788  38.844 232.312  1.00 20.00     0.037 A 
HETATM   16  C10 TAC  7101      -3.773  37.961 233.423  1.00 20.00     0.080 A 
HETATM   17  C1A TAC  7101      -2.543  37.320 233.797  1.00 20.00     0.057 A 
HETATM   18  C11 TAC  7101      -2.492  36.397 234.914  1.00 20.00     0.194 C 
HETATM   19  O11 TAC  7101      -3.354  36.479 235.847  1.00 20.00    -0.287 OA
HETATM   20  C1B TAC  7101      -1.478  35.397 234.939  1.00 20.00     0.033 C 
HETATM   21  C12 TAC  7101      -1.404  34.439 236.004  1.00 20.00     0.097 C 
HETATM   22  C1C TAC  7101      -0.295  33.349 236.072  1.00 20.00     0.177 C 
ENDROOT
BRANCH   3  23
HETATM   23  C21 TAC  7101       3.293  33.630 237.891  1.00 20.00     0.256 C 
HETATM   24  N21 TAC  7101       3.829  32.629 238.618  1.00 20.00    -0.366 N 
ATOM     25 2H21 TAC  7101       3.527  31.664 238.487  1.00  0.00     0.159 HD
ATOM     26 1H21 TAC  7101       4.553  32.863 239.297  1.00  0.00     0.159 HD
HETATM   27  O21 TAC  7101       3.670  34.832 238.054  1.00 20.00    -0.268 OA
ENDBRANCH   3  23
BRANCH  22  28
HETATM   28  O1C TAC  7101      -0.883  32.151 236.564  1.00 20.00    -0.374 OA
ATOM     29  H1C TAC  7101      -0.380  31.422 236.222  1.00  0.00     0.211 HD
ENDBRANCH  22  28
BRANCH   6  30
HETATM   30  N4  TAC  7101       1.409  30.634 234.659  1.00 20.00     0.092 N 
HETATM   31  C42 TAC  7101       1.345  30.025 236.025  1.00 20.00     0.310 C 
HETATM   32  C43 TAC  7101       0.175  30.217 233.923  1.00 20.00     0.310 C 
ENDBRANCH   6  30
BRANCH  21  33
HETATM   33  O12 TAC  7101      -2.309  34.458 237.003  1.00 20.00    -0.361 OA
ATOM     34  H12 TAC  7101      -3.155  34.845 236.814  1.00  0.00     0.217 HD
ENDBRANCH  21  33
BRANCH  10  35
HETATM   35  O6  TAC  7101       0.496  37.448 234.685  1.00 20.00    -0.385 OA
ATOM     36  H6  TAC  7101       0.452  38.395 234.621  1.00  0.00     0.211 HD
ENDBRANCH  10  35
BRANCH  16  37
HETATM   37  O10 TAC  7101      -4.925  37.715 234.135  1.00 20.00    -0.360 OA
ATOM     38  H10 TAC  7101      -5.288  38.379 234.710  1.00  0.00     0.217 HD
ENDBRANCH  16  37
TORSDOF 6
ENDMDL
MODEL 7
REMARK VINA RESULT:      -6.1      3.049      7.287
REMARK  6 active torsions:
REMARK  status: ('A' for Active; 'I' for Inactive)
REMARK    1  A    between atoms: C2_3  and  C21_4 
REMARK       I    between atoms: C21_4  and  N21_6 
REMARK    2  A    between atoms: C4_11  and  N4_12 
REMARK    3  A    between atoms: C6_18  and  O6_20 
REMARK    4  A    between atoms: C10_26  and  O10_27 
REMARK    5  A    between atoms: C12_33  and  O12_34 
REMARK    6  A    between atoms: C1C_36  and  O1C_37 
ROOT
HETATM    1  C1  TAC  7101      -0.024  36.921 237.200  1.00 20.00     0.210 C 
HETATM    2  O1  TAC  7101      -1.133  37.455 237.458  1.00 20.00    -0.288 OA
HETATM    3  C2  TAC  7101       1.238  37.667 237.414  1.00 20.00     0.129 C 
HETATM    4  C3  TAC  7101       2.498  37.067 237.041  1.00 20.00     0.202 C 
HETATM    5  O3  TAC  7101       3.555  37.710 237.145  1.00 20.00    -0.290 OA
HETATM    6  C4  TAC  7101       2.582  35.616 236.460  1.00 20.00     0.304 C 
HETATM    7  C41 TAC  7101       1.273  35.139 235.789  1.00 20.00     0.077 C 
HETATM    8  C5  TAC  7101       1.111  35.878 234.425  1.00 20.00     0.024 C 
HETATM    9  C51 TAC  7101      -0.041  35.365 233.592  1.00 20.00     0.065 C 
HETATM   10  C6  TAC  7101      -0.439  36.314 232.426  1.00 20.00     0.090 C 
HETATM   11  C62 TAC  7101       0.769  36.793 231.615  1.00 20.00     0.052 C 
HETATM   12  C61 TAC  7101      -1.483  35.483 231.591  1.00 20.00    -0.007 A 
HETATM   13  C7  TAC  7101      -1.451  35.421 230.170  1.00 20.00     0.011 A 
HETATM   14  C8  TAC  7101      -2.401  34.654 229.471  1.00 20.00     0.003 A 
HETATM   15  C9  TAC  7101      -3.403  33.930 230.164  1.00 20.00     0.037 A 
HETATM   16  C10 TAC  7101      -3.472  33.964 231.581  1.00 20.00     0.080 A 
HETATM   17  C1A TAC  7101      -2.510  34.740 232.314  1.00 20.00     0.057 A 
HETATM   18  C11 TAC  7101      -2.536  34.785 233.763  1.00 20.00     0.194 C 
HETATM   19  O11 TAC  7101      -3.621  34.554 234.388  1.00 20.00    -0.287 OA
HETATM   20  C1B TAC  7101      -1.333  35.074 234.468  1.00 20.00     0.033 C 
HETATM   21  C12 TAC  7101      -1.297  35.097 235.902  1.00 20.00     0.097 C 
HETATM   22  C1C TAC  7101      -0.003  35.432 236.700  1.00 20.00     0.177 C 
ENDROOT
BRANCH   3  23
HETATM   23  C21 TAC  7101       1.214  39.064 237.959  1.00 20.00     0.256 C 
HETATM   24  N21 TAC  7101       0.739  40.047 237.168  1.00 20.00    -0.366 N 
ATOM     25 2H21 TAC  7101       0.396  39.846 236.228  1.00  0.00     0.159 HD
ATOM     26 1H21 TAC  7101       0.722  40.997 237.539  1.00  0.00     0.159 HD
HETATM   27  O21 TAC  7101       1.641  39.315 239.129  1.00 20.00    -0.268 OA
ENDBRANCH   3  23
BRANCH  22  28
HETATM   28  O1C TAC  7101       0.037  34.593 237.848  1.00 20.00    -0.374 OA
ATOM     29  H1C TAC  7101      -0.821  34.196 237.943  1.00  0.00     0.211 HD
ENDBRANCH  22  28
BRANCH   6  30
HETATM   30  N4  TAC  7101       3.354  34.803 237.478  1.00 20.00     0.092 N 
HETATM   31  C42 TAC  7101       2.943  35.012 238.903  1.00 20.00     0.310 C 
HETATM   32  C43 TAC  7101       3.179  33.349 237.169  1.00 20.00     0.310 C 
ENDBRANCH   6  30
BRANCH  21  33
HETATM   33  O12 TAC  7101      -2.408  34.829 236.616  1.00 20.00    -0.361 OA
ATOM     34  H12 TAC  7101      -2.387  35.035 237.543  1.00  0.00     0.217 HD
ENDBRANCH  21  33
BRANCH  10  35
HETATM   35  O6  TAC  7101      -1.081  37.492 232.965  1.00 20.00    -0.385 OA
ATOM     36  H6  TAC  7101      -2.006  37.317 233.092  1.00  0.00     0.211 HD
ENDBRANCH  10  35
BRANCH  16  37
HETATM   37  O10 TAC  7101      -4.445  33.257 232.251  1.00 20.00    -0.360 OA
ATOM     38  H10 TAC  7101      -4.307  32.980 233.149  1.00  0.00     0.217 HD
ENDBRANCH  16  37
TORSDOF 6
ENDMDL
MODEL 8
REMARK VINA RESULT:      -6.1      1.758      2.251
REMARK  6 active torsions:
REMARK  status: ('A' for Active; 'I' for Inactive)
REMARK    1  A    between atoms: C2_3  and  C21_4 
REMARK       I    between atoms: C21_4  and  N21_6 
REMARK    2  A    between atoms: C4_11  and  N4_12 
REMARK    3  A    between atoms: C6_18  and  O6_20 
REMARK    4  A    between atoms: C10_26  and  O10_27 
REMARK    5  A    between atoms: C12_33  and  O12_34 
REMARK    6  A    between atoms: C1C_36  and  O1C_37 
ROOT
HETATM    1  C1  TAC  7101      -2.027  36.333 231.753  1.00 20.00     0.210 C 
HETATM    2  O1  TAC  7101      -1.204  35.868 230.923  1.00 20.00    -0.288 OA
HETATM    3  C2  TAC  7101      -2.734  37.605 231.481  1.00 20.00     0.129 C 
HETATM    4  C3  TAC  7101      -3.617  38.164 232.478  1.00 20.00     0.202 C 
HETATM    5  O3  TAC  7101      -4.156  39.267 232.293  1.00 20.00    -0.290 OA
HETATM    6  C4  TAC  7101      -3.900  37.433 233.834  1.00 20.00     0.304 C 
HETATM    7  C41 TAC  7101      -2.777  36.457 234.257  1.00 20.00     0.077 C 
HETATM    8  C5  TAC  7101      -1.549  37.286 234.744  1.00 20.00     0.024 C 
HETATM    9  C51 TAC  7101      -0.452  36.442 235.352  1.00 20.00     0.065 C 
HETATM   10  C6  TAC  7101       0.903  37.191 235.496  1.00 20.00     0.090 C 
HETATM   11  C62 TAC  7101       0.747  38.580 236.122  1.00 20.00     0.052 C 
HETATM   12  C61 TAC  7101       1.801  36.208 236.335  1.00 20.00    -0.007 A 
HETATM   13  C7  TAC  7101       2.612  36.646 237.418  1.00 20.00     0.011 A 
HETATM   14  C8  TAC  7101       3.387  35.724 238.143  1.00 20.00     0.003 A 
HETATM   15  C9  TAC  7101       3.375  34.345 237.814  1.00 20.00     0.037 A 
HETATM   16  C10 TAC  7101       2.580  33.864 236.742  1.00 20.00     0.080 A 
HETATM   17  C1A TAC  7101       1.780  34.789 235.988  1.00 20.00     0.057 A 
HETATM   18  C11 TAC  7101       0.940  34.334 234.897  1.00 20.00     0.194 C 
HETATM   19  O11 TAC  7101       1.222  33.254 234.286  1.00 20.00    -0.287 OA
HETATM   20  C1B TAC  7101      -0.203  35.103 234.538  1.00 20.00     0.033 C 
HETATM   21  C12 TAC  7101      -1.085  34.679 233.489  1.00 20.00     0.097 C 
HETATM   22  C1C TAC  7101      -2.329  35.509 233.056  1.00 20.00     0.177 C 
ENDROOT
BRANCH   3  23
HETATM   23  C21 TAC  7101      -2.494  38.352 230.202  1.00 20.00     0.256 C 
HETATM   24  N21 TAC  7101      -1.305  38.969 230.040  1.00 20.00    -0.366 N 
ATOM     25 2H21 TAC  7101      -0.586  38.922 230.762  1.00  0.00     0.159 HD
ATOM     26 1H21 TAC  7101      -1.142  39.476 229.170  1.00  0.00     0.159 HD
HETATM   27  O21 TAC  7101      -3.389  38.410 229.302  1.00 20.00    -0.268 OA
ENDBRANCH   3  23
BRANCH  22  28
HETATM   28  O1C TAC  7101      -3.383  34.600 232.757  1.00 20.00    -0.374 OA
ATOM     29  H1C TAC  7101      -3.795  34.893 231.953  1.00  0.00     0.211 HD
ENDBRANCH  22  28
BRANCH   6  30
HETATM   30  N4  TAC  7101      -5.370  37.073 233.816  1.00 20.00     0.092 N 
HETATM   31  C42 TAC  7101      -5.704  35.735 234.399  1.00 20.00     0.310 C 
HETATM   32  C43 TAC  7101      -6.130  38.103 234.591  1.00 20.00     0.310 C 
ENDBRANCH   6  30
BRANCH  21  33
HETATM   33  O12 TAC  7101      -0.855  33.527 232.828  1.00 20.00    -0.361 OA
ATOM     34  H12 TAC  7101      -0.506  33.595 231.947  1.00  0.00     0.217 HD
ENDBRANCH  21  33
BRANCH  10  35
HETATM   35  O6  TAC  7101       1.488  37.380 234.187  1.00 20.00    -0.385 OA
ATOM     36  H6  TAC  7101       2.428  37.256 234.241  1.00  0.00     0.211 HD
ENDBRANCH  10  35
BRANCH  16  37
HETATM   37  O10 TAC  7101       2.569  32.524 236.426  1.00 20.00    -0.360 OA
ATOM     38  H10 TAC  7101       1.815  32.136 235.998  1.00  0.00     0.217 HD
ENDBRANCH  16  37
TORSDOF 6
ENDMDL
MODEL 9
REMARK VINA RESULT:      -6.0      3.638      7.365
REMARK  6 active torsions:
REMARK  status: ('A' for Active; 'I' for Inactive)
REMARK    1  A    between atoms: C2_3  and  C21_4 
REMARK       I    between atoms: C21_4  and  N21_6 
REMARK    2  A    between atoms: C4_11  and  N4_12 
REMARK    3  A    between atoms: C6_18  and  O6_20 
REMARK    4  A    between atoms: C10_26  and  O10_27 
REMARK    5  A    between atoms: C12_33  and  O12_34 
REMARK    6  A    between atoms: C1C_36  and  O1C_37 
ROOT
HETATM    1  C1  TAC  7101      -2.478  35.751 233.587  1.00 20.00     0.210 C 
HETATM    2  O1  TAC  7101      -3.431  34.934 233.509  1.00 20.00    -0.288 OA
HETATM    3  C2  TAC  7101      -2.740  37.198 233.765  1.00 20.00     0.129 C 
HETATM    4  C3  TAC  7101      -1.638  38.131 233.776  1.00 20.00     0.202 C 
HETATM    5  O3  TAC  7101      -1.849  39.352 233.848  1.00 20.00    -0.290 OA
HETATM    6  C4  TAC  7101      -0.151  37.655 233.659  1.00 20.00     0.304 C 
HETATM    7  C41 TAC  7101       0.008  36.282 232.965  1.00 20.00     0.077 C 
HETATM    8  C5  TAC  7101      -0.252  36.460 231.437  1.00 20.00     0.024 C 
HETATM    9  C51 TAC  7101       0.048  35.222 230.624  1.00 20.00     0.065 C 
HETATM   10  C6  TAC  7101      -0.546  35.260 229.187  1.00 20.00     0.090 C 
HETATM   11  C62 TAC  7101      -0.262  36.580 228.465  1.00 20.00     0.052 C 
HETATM   12  C61 TAC  7101       0.071  33.997 228.479  1.00 20.00    -0.007 A 
HETATM   13  C7  TAC  7101       0.599  34.041 227.159  1.00 20.00     0.011 A 
HETATM   14  C8  TAC  7101       1.151  32.885 226.577  1.00 20.00     0.003 A 
HETATM   15  C9  TAC  7101       1.193  31.661 227.290  1.00 20.00     0.037 A 
HETATM   16  C10 TAC  7101       0.679  31.572 228.609  1.00 20.00     0.080 A 
HETATM   17  C1A TAC  7101       0.111  32.741 229.223  1.00 20.00     0.057 A 
HETATM   18  C11 TAC  7101      -0.408  32.696 230.576  1.00 20.00     0.194 C 
HETATM   19  O11 TAC  7101      -0.803  31.591 231.069  1.00 20.00    -0.287 OA
HETATM   20  C1B TAC  7101      -0.452  33.897 231.340  1.00 20.00     0.033 C 
HETATM   21  C12 TAC  7101      -0.925  33.900 232.695  1.00 20.00     0.097 C 
HETATM   22  C1C TAC  7101      -1.008  35.199 233.547  1.00 20.00     0.177 C 
ENDROOT
BRANCH   3  23
HETATM   23  C21 TAC  7101      -4.146  37.710 233.873  1.00 20.00     0.256 C 
HETATM   24  N21 TAC  7101      -4.859  37.382 234.970  1.00 20.00    -0.366 N 
ATOM     25 2H21 TAC  7101      -4.452  36.810 235.710  1.00  0.00     0.159 HD
ATOM     26 1H21 TAC  7101      -5.815  37.731 235.043  1.00  0.00     0.159 HD
HETATM   27  O21 TAC  7101      -4.654  38.422 232.952  1.00 20.00    -0.268 OA
ENDBRANCH   3  23
BRANCH  22  28
HETATM   28  O1C TAC  7101      -0.633  34.875 234.882  1.00 20.00    -0.374 OA
ATOM     29  H1C TAC  7101      -0.666  33.930 234.968  1.00  0.00     0.211 HD
ENDBRANCH  22  28
BRANCH   6  30
HETATM   30  N4  TAC  7101       0.508  38.017 234.973  1.00 20.00     0.092 N 
HETATM   31  C42 TAC  7101      -0.267  37.644 236.198  1.00 20.00     0.310 C 
HETATM   32  C43 TAC  7101       1.835  37.330 235.054  1.00 20.00     0.310 C 
ENDBRANCH   6  30
BRANCH  21  33
HETATM   33  O12 TAC  7101      -1.327  32.754 233.279  1.00 20.00    -0.361 OA
ATOM     34  H12 TAC  7101      -1.544  32.791 234.203  1.00  0.00     0.217 HD
ENDBRANCH  21  33
BRANCH  10  35
HETATM   35  O6  TAC  7101      -1.984  35.118 229.259  1.00 20.00    -0.385 OA
ATOM     36  H6  TAC  7101      -2.339  35.055 228.380  1.00  0.00     0.211 HD
ENDBRANCH  10  35
BRANCH  16  37
HETATM   37  O10 TAC  7101       0.724  30.382 229.299  1.00 20.00    -0.360 OA
ATOM     38  H10 TAC  7101       1.310  30.276 230.039  1.00  0.00     0.217 HD
ENDBRANCH  16  37
TORSDOF 6
ENDMDL
