MODEL 1
REMARK VINA RESULT:      -5.9      0.000      0.000
REMARK  6 active torsions:
REMARK  status: ('A' for Active; 'I' for Inactive)
REMARK    1  A    between atoms: C14_2  and  O2_3 
REMARK    2  A    between atoms: C13_4  and  O2_3 
REMARK    3  A    between atoms: C13_4  and  C2_6 
REMARK    4  A    between atoms: C16_14  and  C4_13 
REMARK    5  A    between atoms: C16_14  and  O4_16 
REMARK    6  A    between atoms: C3_18  and  C6_19 
ROOT
HETATM    1  C2  225   386       0.617  36.859 234.377  1.00 20.00     0.073 C 
HETATM    2  C1  225   386      -0.118  38.045 234.530  1.00 20.00     0.022 C 
HETATM    3  C12 225   386      -1.225  38.506 233.573  1.00 20.00     0.069 C 
HETATM    4  N1  225   386       0.091  38.826 235.610  1.00 20.00    -0.362 N 
ATOM      5  H1  225   386      -0.472  39.675 235.675  1.00  0.00     0.165 HD
HETATM    6  C5  225   386       0.966  38.604 236.612  1.00 20.00     0.022 C 
HETATM    7  C18 225   386       0.897  39.563 237.807  1.00 20.00     0.069 C 
HETATM    8  C4  225   386       1.792  37.471 236.567  1.00 20.00     0.073 C 
HETATM    9  C3  225   386       1.311  36.320 235.652  1.00 20.00     0.012 C 
ENDROOT
BRANCH   9  10
HETATM   10  C6  225   386       0.673  35.090 236.341  1.00 20.00    -0.000 A 
HETATM   11  C11 225   386       1.412  33.957 236.734  1.00 20.00     0.067 A 
HETATM   12  C10 225   386       0.756  32.870 237.334  1.00 20.00     0.056 A 
HETATM   13 CL2  225   386       3.125  33.844 236.485  1.00 20.00    -0.082 Cl
HETATM   14 CL1  225   386       1.576  31.468 237.932  1.00 20.00    -0.083 Cl
HETATM   15  C9  225   386      -0.625  32.898 237.535  1.00 20.00     0.026 A 
HETATM   16  C8  225   386      -1.376  34.012 237.155  1.00 20.00     0.003 A 
HETATM   17  C7  225   386      -0.712  35.088 236.566  1.00 20.00     0.014 A 
ENDBRANCH   9  10
BRANCH   1  18
HETATM   18  C13 225   386       0.786  36.103 233.046  1.00 20.00     0.296 C 
HETATM   19  O1  225   386       0.424  34.929 232.945  1.00 20.00    -0.259 OA
BRANCH  18  20
HETATM   20  O2  225   386       1.298  36.778 231.974  1.00 20.00    -0.318 OA
BRANCH  20  21
HETATM   21  C14 225   386       0.880  36.408 230.648  1.00 20.00     0.174 C 
HETATM   22  C15 225   386      -0.207  37.365 230.150  1.00 20.00     0.034 C 
ENDBRANCH  20  21
ENDBRANCH  18  20
ENDBRANCH   1  18
BRANCH   8  23
HETATM   23  C16 225   386       3.199  37.412 237.190  1.00 20.00     0.295 C 
HETATM   24  O3  225   386       4.194  37.320 236.471  1.00 20.00    -0.259 OA
BRANCH  23  25
HETATM   25  O4  225   386       3.320  37.420 238.551  1.00 20.00    -0.322 OA
HETATM   26  C17 225   386       2.559  36.470 239.310  1.00 20.00     0.213 C 
ENDBRANCH  23  25
ENDBRANCH   8  23
TORSDOF 6
ENDMDL
MODEL 2
REMARK VINA RESULT:      -5.7      2.609      4.681
REMARK  6 active torsions:
REMARK  status: ('A' for Active; 'I' for Inactive)
REMARK    1  A    between atoms: C14_2  and  O2_3 
REMARK    2  A    between atoms: C13_4  and  O2_3 
REMARK    3  A    between atoms: C13_4  and  C2_6 
REMARK    4  A    between atoms: C16_14  and  C4_13 
REMARK    5  A    between atoms: C16_14  and  O4_16 
REMARK    6  A    between atoms: C3_18  and  C6_19 
ROOT
HETATM    1  C2  225   386       1.711  36.677 236.329  1.00 20.00     0.073 C 
HETATM    2  C1  225   386       1.001  36.925 235.144  1.00 20.00     0.022 C 
HETATM    3  C12 225   386       1.534  37.762 233.974  1.00 20.00     0.069 C 
HETATM    4  N1  225   386      -0.208  36.356 234.959  1.00 20.00    -0.362 N 
ATOM      5  H1  225   386      -0.681  36.565 234.079  1.00  0.00     0.165 HD
HETATM    6  C5  225   386      -0.858  35.540 235.814  1.00 20.00     0.022 C 
HETATM    7  C18 225   386      -2.150  34.897 235.298  1.00 20.00     0.069 C 
HETATM    8  C4  225   386      -0.276  35.238 237.055  1.00 20.00     0.073 C 
HETATM    9  C3  225   386       1.253  35.450 237.153  1.00 20.00     0.012 C 
ENDROOT
BRANCH   9  10
HETATM   10  C6  225   386       2.145  34.186 237.101  1.00 20.00    -0.000 A 
HETATM   11  C11 225   386       2.909  33.736 238.195  1.00 20.00     0.067 A 
HETATM   12  C10 225   386       3.712  32.591 238.062  1.00 20.00     0.056 A 
HETATM   13 CL2  225   386       2.909  34.564 239.719  1.00 20.00    -0.082 Cl
HETATM   14 CL1  225   386       4.622  31.903 239.363  1.00 20.00    -0.083 Cl
HETATM   15  C9  225   386       3.769  31.902 236.849  1.00 20.00     0.026 A 
HETATM   16  C8  225   386       3.018  32.330 235.753  1.00 20.00     0.003 A 
HETATM   17  C7  225   386       2.219  33.464 235.899  1.00 20.00     0.014 A 
ENDBRANCH   9  10
BRANCH   1  18
HETATM   18  C13 225   386       2.870  37.548 236.849  1.00 20.00     0.296 C 
HETATM   19  O1  225   386       4.032  37.139 236.797  1.00 20.00    -0.259 OA
BRANCH  18  20
HETATM   20  O2  225   386       2.584  38.799 237.321  1.00 20.00    -0.318 OA
BRANCH  20  21
HETATM   21  C14 225   386       1.777  38.932 238.506  1.00 20.00     0.174 C 
HETATM   22  C15 225   386       0.459  39.637 238.171  1.00 20.00     0.034 C 
ENDBRANCH  20  21
ENDBRANCH  18  20
ENDBRANCH   1  18
BRANCH   8  23
HETATM   23  C16 225   386      -1.086  34.927 238.326  1.00 20.00     0.295 C 
HETATM   24  O3  225   386      -0.823  33.931 239.002  1.00 20.00    -0.259 OA
BRANCH  23  25
HETATM   25  O4  225   386      -2.125  35.745 238.667  1.00 20.00    -0.322 OA
HETATM   26  C17 225   386      -3.374  35.145 239.037  1.00 20.00     0.213 C 
ENDBRANCH  23  25
ENDBRANCH   8  23
TORSDOF 6
ENDMDL
MODEL 3
REMARK VINA RESULT:      -5.6      1.687      2.292
REMARK  6 active torsions:
REMARK  status: ('A' for Active; 'I' for Inactive)
REMARK    1  A    between atoms: C14_2  and  O2_3 
REMARK    2  A    between atoms: C13_4  and  O2_3 
REMARK    3  A    between atoms: C13_4  and  C2_6 
REMARK    4  A    between atoms: C16_14  and  C4_13 
REMARK    5  A    between atoms: C16_14  and  O4_16 
REMARK    6  A    between atoms: C3_18  and  C6_19 
ROOT
HETATM    1  C2  225   386       0.686  37.073 234.363  1.00 20.00     0.073 C 
HETATM    2  C1  225   386      -0.228  38.111 234.600  1.00 20.00     0.022 C 
HETATM    3  C12 225   386      -1.445  38.412 233.715  1.00 20.00     0.069 C 
HETATM    4  N1  225   386      -0.097  38.878 235.702  1.00 20.00    -0.362 N 
ATOM      5  H1  225   386      -0.789  39.616 235.830  1.00  0.00     0.165 HD
HETATM    6  C5  225   386       0.854  38.772 236.653  1.00 20.00     0.022 C 
HETATM    7  C18 225   386       0.688  39.662 237.890  1.00 20.00     0.069 C 
HETATM    8  C4  225   386       1.854  37.797 236.521  1.00 20.00     0.073 C 
HETATM    9  C3  225   386       1.526  36.615 235.580  1.00 20.00     0.012 C 
ENDROOT
BRANCH   9  10
HETATM   10  C6  225   386       1.139  35.270 236.243  1.00 20.00    -0.000 A 
HETATM   11  C11 225   386      -0.075  35.070 236.929  1.00 20.00     0.067 A 
HETATM   12  C10 225   386      -0.343  33.827 237.523  1.00 20.00     0.056 A 
HETATM   13 CL2  225   386      -1.261  36.326 237.085  1.00 20.00    -0.082 Cl
HETATM   14 CL1  225   386      -1.834  33.445 238.314  1.00 20.00    -0.083 Cl
HETATM   15  C9  225   386       0.589  32.789 237.451  1.00 20.00     0.026 A 
HETATM   16  C8  225   386       1.797  32.966 236.774  1.00 20.00     0.003 A 
HETATM   17  C7  225   386       2.049  34.204 236.182  1.00 20.00     0.014 A 
ENDBRANCH   9  10
BRANCH   1  18
HETATM   18  C13 225   386       0.910  36.404 232.994  1.00 20.00     0.296 C 
HETATM   19  O1  225   386       1.472  37.015 232.083  1.00 20.00    -0.259 OA
BRANCH  18  20
HETATM   20  O2  225   386       0.515  35.105 232.832  1.00 20.00    -0.318 OA
BRANCH  20  21
HETATM   21  C14 225   386      -0.817  34.724 233.221  1.00 20.00     0.174 C 
HETATM   22  C15 225   386      -0.821  33.292 233.764  1.00 20.00     0.034 C 
ENDBRANCH  20  21
ENDBRANCH  18  20
ENDBRANCH   1  18
BRANCH   8  23
HETATM   23  C16 225   386       3.282  37.955 237.078  1.00 20.00     0.295 C 
HETATM   24  O3  225   386       4.175  37.184 236.725  1.00 20.00    -0.259 OA
BRANCH  23  25
HETATM   25  O4  225   386       3.528  38.934 237.998  1.00 20.00    -0.322 OA
HETATM   26  C17 225   386       3.961  38.544 239.309  1.00 20.00     0.213 C 
ENDBRANCH  23  25
ENDBRANCH   8  23
TORSDOF 6
ENDMDL
MODEL 4
REMARK VINA RESULT:      -5.5      3.391      5.303
REMARK  6 active torsions:
REMARK  status: ('A' for Active; 'I' for Inactive)
REMARK    1  A    between atoms: C14_2  and  O2_3 
REMARK    2  A    between atoms: C13_4  and  O2_3 
REMARK    3  A    between atoms: C13_4  and  C2_6 
REMARK    4  A    between atoms: C16_14  and  C4_13 
REMARK    5  A    between atoms: C16_14  and  O4_16 
REMARK    6  A    between atoms: C3_18  and  C6_19 
ROOT
HETATM    1  C2  225   386      -1.296  35.477 235.471  1.00 20.00     0.073 C 
HETATM    2  C1  225   386      -0.610  34.351 235.951  1.00 20.00     0.022 C 
HETATM    3  C12 225   386      -1.197  32.935 235.999  1.00 20.00     0.069 C 
HETATM    4  N1  225   386       0.674  34.470 236.348  1.00 20.00    -0.362 N 
ATOM      5  H1  225   386       1.129  33.621 236.685  1.00  0.00     0.165 HD
HETATM    6  C5  225   386       1.420  35.594 236.347  1.00 20.00     0.022 C 
HETATM    7  C18 225   386       2.904  35.431 236.696  1.00 20.00     0.069 C 
HETATM    8  C4  225   386       0.845  36.802 235.925  1.00 20.00     0.073 C 
HETATM    9  C3  225   386      -0.418  36.677 235.041  1.00 20.00     0.012 C 
ENDROOT
BRANCH   9  10
HETATM   10  C6  225   386      -0.244  36.921 233.522  1.00 20.00    -0.000 A 
HETATM   11  C11 225   386      -0.974  37.892 232.809  1.00 20.00     0.067 A 
HETATM   12  C10 225   386      -0.776  38.038 231.427  1.00 20.00     0.056 A 
HETATM   13 CL2  225   386      -2.140  38.917 233.583  1.00 20.00    -0.082 Cl
HETATM   14 CL1  225   386      -1.554  39.252 230.471  1.00 20.00    -0.083 Cl
HETATM   15  C9  225   386       0.132  37.221 230.750  1.00 20.00     0.026 A 
HETATM   16  C8  225   386       0.867  36.254 231.438  1.00 20.00     0.003 A 
HETATM   17  C7  225   386       0.666  36.123 232.812  1.00 20.00     0.014 A 
ENDBRANCH   9  10
BRANCH   1  18
HETATM   18  C13 225   386      -2.829  35.589 235.376  1.00 20.00     0.296 C 
HETATM   19  O1  225   386      -3.449  36.340 236.132  1.00 20.00    -0.259 OA
BRANCH  18  20
HETATM   20  O2  225   386      -3.475  34.876 234.405  1.00 20.00    -0.318 OA
BRANCH  20  21
HETATM   21  C14 225   386      -3.808  35.525 233.164  1.00 20.00     0.174 C 
HETATM   22  C15 225   386      -3.029  34.889 232.010  1.00 20.00     0.034 C 
ENDBRANCH  20  21
ENDBRANCH  18  20
ENDBRANCH   1  18
BRANCH   8  23
HETATM   23  C16 225   386       1.271  38.184 236.456  1.00 20.00     0.295 C 
HETATM   24  O3  225   386       1.725  39.032 235.687  1.00 20.00    -0.259 OA
BRANCH  23  25
HETATM   25  O4  225   386       1.178  38.435 237.795  1.00 20.00    -0.322 OA
HETATM   26  C17 225   386       0.473  39.610 238.222  1.00 20.00     0.213 C 
ENDBRANCH  23  25
ENDBRANCH   8  23
TORSDOF 6
ENDMDL
MODEL 5
REMARK VINA RESULT:      -5.5      3.147      5.377
REMARK  6 active torsions:
REMARK  status: ('A' for Active; 'I' for Inactive)
REMARK    1  A    between atoms: C14_2  and  O2_3 
REMARK    2  A    between atoms: C13_4  and  O2_3 
REMARK    3  A    between atoms: C13_4  and  C2_6 
REMARK    4  A    between atoms: C16_14  and  C4_13 
REMARK    5  A    between atoms: C16_14  and  O4_16 
REMARK    6  A    between atoms: C3_18  and  C6_19 
ROOT
HETATM    1  C2  225   386       1.252  33.606 236.131  1.00 20.00     0.073 C 
HETATM    2  C1  225   386       2.207  32.578 236.131  1.00 20.00     0.022 C 
HETATM    3  C12 225   386       2.773  31.921 234.866  1.00 20.00     0.069 C 
HETATM    4  N1  225   386       2.734  32.156 237.299  1.00 20.00    -0.362 N 
ATOM      5  H1  225   386       3.427  31.409 237.245  1.00  0.00     0.165 HD
HETATM    6  C5  225   386       2.439  32.617 238.533  1.00 20.00     0.022 C 
HETATM    7  C18 225   386       3.295  32.080 239.686  1.00 20.00     0.069 C 
HETATM    8  C4  225   386       1.471  33.621 238.680  1.00 20.00     0.073 C 
HETATM    9  C3  225   386       1.174  34.463 237.418  1.00 20.00     0.012 C 
ENDROOT
BRANCH   9  10
HETATM   10  C6  225   386       1.779  35.887 237.360  1.00 20.00    -0.000 A 
HETATM   11  C11 225   386       1.016  37.057 237.538  1.00 20.00     0.067 A 
HETATM   12  C10 225   386       1.634  38.314 237.449  1.00 20.00     0.056 A 
HETATM   13 CL2  225   386      -0.690  37.003 237.851  1.00 20.00    -0.082 Cl
HETATM   14 CL1  225   386       0.811  39.809 237.735  1.00 20.00    -0.083 Cl
HETATM   15  C9  225   386       2.999  38.415 237.173  1.00 20.00     0.026 A 
HETATM   16  C8  225   386       3.775  37.268 236.995  1.00 20.00     0.003 A 
HETATM   17  C7  225   386       3.150  36.025 237.093  1.00 20.00     0.014 A 
ENDBRANCH   9  10
BRANCH   1  18
HETATM   18  C13 225   386       0.290  33.901 234.965  1.00 20.00     0.296 C 
HETATM   19  O1  225   386      -0.815  33.356 234.913  1.00 20.00    -0.259 OA
BRANCH  18  20
HETATM   20  O2  225   386       0.670  34.815 234.023  1.00 20.00    -0.318 OA
BRANCH  20  21
HETATM   21  C14 225   386       0.073  36.125 234.036  1.00 20.00     0.174 C 
HETATM   22  C15 225   386       1.146  37.196 233.821  1.00 20.00     0.034 C 
ENDBRANCH  20  21
ENDBRANCH  18  20
ENDBRANCH   1  18
BRANCH   8  23
HETATM   23  C16 225   386       0.579  33.773 239.926  1.00 20.00     0.295 C 
HETATM   24  O3  225   386       0.691  34.761 240.653  1.00 20.00    -0.259 OA
BRANCH  23  25
HETATM   25  O4  225   386      -0.304  32.778 240.233  1.00 20.00    -0.322 OA
HETATM   26  C17 225   386      -1.371  32.503 239.315  1.00 20.00     0.213 C 
ENDBRANCH  23  25
ENDBRANCH   8  23
TORSDOF 6
ENDMDL
MODEL 6
REMARK VINA RESULT:      -5.5      3.158      5.322
REMARK  6 active torsions:
REMARK  status: ('A' for Active; 'I' for Inactive)
REMARK    1  A    between atoms: C14_2  and  O2_3 
REMARK    2  A    between atoms: C13_4  and  O2_3 
REMARK    3  A    between atoms: C13_4  and  C2_6 
REMARK    4  A    between atoms: C16_14  and  C4_13 
REMARK    5  A    between atoms: C16_14  and  O4_16 
REMARK    6  A    between atoms: C3_18  and  C6_19 
ROOT
HETATM    1  C2  225   386       1.799  36.446 235.865  1.00 20.00     0.073 C 
HETATM    2  C1  225   386       2.854  36.072 236.712  1.00 20.00     0.022 C 
HETATM    3  C12 225   386       3.772  37.062 237.440  1.00 20.00     0.069 C 
HETATM    4  N1  225   386       3.067  34.767 236.977  1.00 20.00    -0.362 N 
ATOM      5  H1  225   386       3.844  34.548 237.601  1.00  0.00     0.165 HD
HETATM    6  C5  225   386       2.361  33.719 236.502  1.00 20.00     0.022 C 
HETATM    7  C18 225   386       2.706  32.343 237.083  1.00 20.00     0.069 C 
HETATM    8  C4  225   386       1.300  33.949 235.614  1.00 20.00     0.073 C 
HETATM    9  C3  225   386       0.706  35.377 235.627  1.00 20.00     0.012 C 
ENDROOT
BRANCH   9  10
HETATM   10  C6  225   386      -0.648  35.571 236.353  1.00 20.00    -0.000 A 
HETATM   11  C11 225   386      -1.822  35.986 235.696  1.00 20.00     0.067 A 
HETATM   12  C10 225   386      -3.007  36.161 236.428  1.00 20.00     0.056 A 
HETATM   13 CL2  225   386      -1.857  36.310 233.992  1.00 20.00    -0.082 Cl
HETATM   14 CL1  225   386      -4.524  36.584 235.711  1.00 20.00    -0.083 Cl
HETATM   15  C9  225   386      -3.028  35.940 237.807  1.00 20.00     0.026 A 
HETATM   16  C8  225   386      -1.875  35.526 238.478  1.00 20.00     0.003 A 
HETATM   17  C7  225   386      -0.706  35.349 237.737  1.00 20.00     0.014 A 
ENDBRANCH   9  10
BRANCH   1  18
HETATM   18  C13 225   386       1.688  37.812 235.161  1.00 20.00     0.296 C 
HETATM   19  O1  225   386       1.754  37.889 233.933  1.00 20.00    -0.259 OA
BRANCH  18  20
HETATM   20  O2  225   386       1.467  38.922 235.927  1.00 20.00    -0.318 OA
BRANCH  20  21
HETATM   21  C14 225   386       0.393  38.909 236.886  1.00 20.00     0.174 C 
HETATM   22  C15 225   386       0.866  39.501 238.216  1.00 20.00     0.034 C 
ENDBRANCH  20  21
ENDBRANCH  18  20
ENDBRANCH   1  18
BRANCH   8  23
HETATM   23  C16 225   386       0.865  32.951 234.525  1.00 20.00     0.295 C 
HETATM   24  O3  225   386      -0.325  32.839 234.225  1.00 20.00    -0.259 OA
BRANCH  23  25
HETATM   25  O4  225   386       1.810  32.164 233.932  1.00 20.00    -0.322 OA
HETATM   26  C17 225   386       1.453  30.823 233.569  1.00 20.00     0.213 C 
ENDBRANCH  23  25
ENDBRANCH   8  23
TORSDOF 6
ENDMDL
MODEL 7
REMARK VINA RESULT:      -5.4      3.131      4.911
REMARK  6 active torsions:
REMARK  status: ('A' for Active; 'I' for Inactive)
REMARK    1  A    between atoms: C14_2  and  O2_3 
REMARK    2  A    between atoms: C13_4  and  O2_3 
REMARK    3  A    between atoms: C13_4  and  C2_6 
REMARK    4  A    between atoms: C16_14  and  C4_13 
REMARK    5  A    between atoms: C16_14  and  O4_16 
REMARK    6  A    between atoms: C3_18  and  C6_19 
ROOT
HETATM    1  C2  225   386      -0.362  35.754 237.943  1.00 20.00     0.073 C 
HETATM    2  C1  225   386       0.569  35.450 238.948  1.00 20.00     0.022 C 
HETATM    3  C12 225   386       0.310  34.472 240.102  1.00 20.00     0.069 C 
HETATM    4  N1  225   386       1.806  35.986 238.897  1.00 20.00    -0.362 N 
ATOM      5  H1  225   386       2.446  35.730 239.650  1.00  0.00     0.165 HD
HETATM    6  C5  225   386       2.286  36.824 237.956  1.00 20.00     0.022 C 
HETATM    7  C18 225   386       3.779  37.164 238.038  1.00 20.00     0.069 C 
HETATM    8  C4  225   386       1.447  37.239 236.911  1.00 20.00     0.073 C 
HETATM    9  C3  225   386       0.218  36.343 236.634  1.00 20.00     0.012 C 
ENDROOT
BRANCH   9  10
HETATM   10  C6  225   386       0.290  35.406 235.404  1.00 20.00    -0.000 A 
HETATM   11  C11 225   386      -0.270  35.731 234.154  1.00 20.00     0.067 A 
HETATM   12  C10 225   386      -0.183  34.817 233.091  1.00 20.00     0.056 A 
HETATM   13 CL2  225   386      -1.093  37.233 233.877  1.00 20.00    -0.082 Cl
HETATM   14 CL1  225   386      -0.760  35.147 231.493  1.00 20.00    -0.083 Cl
HETATM   15  C9  225   386       0.445  33.582 233.267  1.00 20.00     0.026 A 
HETATM   16  C8  225   386       1.009  33.241 234.498  1.00 20.00     0.003 A 
HETATM   17  C7  225   386       0.922  34.160 235.544  1.00 20.00     0.014 A 
ENDBRANCH   9  10
BRANCH   1  18
HETATM   18  C13 225   386      -1.884  35.561 238.077  1.00 20.00     0.296 C 
HETATM   19  O1  225   386      -2.609  36.510 238.383  1.00 20.00    -0.259 OA
BRANCH  18  20
HETATM   20  O2  225   386      -2.412  34.331 237.803  1.00 20.00    -0.318 OA
BRANCH  20  21
HETATM   21  C14 225   386      -3.520  34.232 236.890  1.00 20.00     0.174 C 
HETATM   22  C15 225   386      -3.038  33.736 235.524  1.00 20.00     0.034 C 
ENDBRANCH  20  21
ENDBRANCH  18  20
ENDBRANCH   1  18
BRANCH   8  23
HETATM   23  C16 225   386       1.574  38.601 236.202  1.00 20.00     0.295 C 
HETATM   24  O3  225   386       1.816  38.653 234.995  1.00 20.00    -0.259 OA
BRANCH  23  25
HETATM   25  O4  225   386       1.456  39.744 236.939  1.00 20.00    -0.322 OA
HETATM   26  C17 225   386       0.458  39.794 237.968  1.00 20.00     0.213 C 
ENDBRANCH  23  25
ENDBRANCH   8  23
TORSDOF 6
ENDMDL
MODEL 8
REMARK VINA RESULT:      -5.3      2.583      5.376
REMARK  6 active torsions:
REMARK  status: ('A' for Active; 'I' for Inactive)
REMARK    1  A    between atoms: C14_2  and  O2_3 
REMARK    2  A    between atoms: C13_4  and  O2_3 
REMARK    3  A    between atoms: C13_4  and  C2_6 
REMARK    4  A    between atoms: C16_14  and  C4_13 
REMARK    5  A    between atoms: C16_14  and  O4_16 
REMARK    6  A    between atoms: C3_18  and  C6_19 
ROOT
HETATM    1  C2  225   386       0.803  37.515 236.513  1.00 20.00     0.073 C 
HETATM    2  C1  225   386       0.179  38.093 237.629  1.00 20.00     0.022 C 
HETATM    3  C12 225   386       0.630  39.400 238.293  1.00 20.00     0.069 C 
HETATM    4  N1  225   386      -0.932  37.524 238.142  1.00 20.00    -0.362 N 
ATOM      5  H1  225   386      -1.350  37.985 238.950  1.00  0.00     0.165 HD
HETATM    6  C5  225   386      -1.549  36.409 237.698  1.00 20.00     0.022 C 
HETATM    7  C18 225   386      -2.889  36.060 238.356  1.00 20.00     0.069 C 
HETATM    8  C4  225   386      -1.007  35.709 236.609  1.00 20.00     0.073 C 
HETATM    9  C3  225   386      -0.051  36.513 235.698  1.00 20.00     0.012 C 
ENDROOT
BRANCH   9  10
HETATM   10  C6  225   386      -0.611  36.999 234.339  1.00 20.00    -0.000 A 
HETATM   11  C11 225   386      -0.473  36.269 233.143  1.00 20.00     0.067 A 
HETATM   12  C10 225   386      -0.990  36.788 231.945  1.00 20.00     0.056 A 
HETATM   13 CL2  225   386       0.341  34.738 233.088  1.00 20.00    -0.082 Cl
HETATM   14 CL1  225   386      -0.952  35.939 230.437  1.00 20.00    -0.083 Cl
HETATM   15  C9  225   386      -1.632  38.028 231.928  1.00 20.00     0.026 A 
HETATM   16  C8  225   386      -1.782  38.767 233.103  1.00 20.00     0.003 A 
HETATM   17  C7  225   386      -1.269  38.237 234.287  1.00 20.00     0.014 A 
ENDBRANCH   9  10
BRANCH   1  18
HETATM   18  C13 225   386       2.255  37.796 236.083  1.00 20.00     0.296 C 
HETATM   19  O1  225   386       2.491  38.484 235.088  1.00 20.00    -0.259 OA
BRANCH  18  20
HETATM   20  O2  225   386       3.270  37.307 236.858  1.00 20.00    -0.318 OA
BRANCH  20  21
HETATM   21  C14 225   386       3.043  36.122 237.643  1.00 20.00     0.174 C 
HETATM   22  C15 225   386       3.226  34.872 236.778  1.00 20.00     0.034 C 
ENDBRANCH  20  21
ENDBRANCH  18  20
ENDBRANCH   1  18
BRANCH   8  23
HETATM   23  C16 225   386      -1.148  34.188 236.414  1.00 20.00     0.295 C 
HETATM   24  O3  225   386      -2.080  33.731 235.750  1.00 20.00    -0.259 OA
BRANCH  23  25
HETATM   25  O4  225   386      -0.252  33.357 237.023  1.00 20.00    -0.322 OA
HETATM   26  C17 225   386       0.314  32.284 236.258  1.00 20.00     0.213 C 
ENDBRANCH  23  25
ENDBRANCH   8  23
TORSDOF 6
ENDMDL
MODEL 9
REMARK VINA RESULT:      -5.3      3.123      5.061
REMARK  6 active torsions:
REMARK  status: ('A' for Active; 'I' for Inactive)
REMARK    1  A    between atoms: C14_2  and  O2_3 
REMARK    2  A    between atoms: C13_4  and  O2_3 
REMARK    3  A    between atoms: C13_4  and  C2_6 
REMARK    4  A    between atoms: C16_14  and  C4_13 
REMARK    5  A    between atoms: C16_14  and  O4_16 
REMARK    6  A    between atoms: C3_18  and  C6_19 
ROOT
HETATM    1  C2  225   386      -0.227  34.570 235.209  1.00 20.00     0.073 C 
HETATM    2  C1  225   386       0.468  33.855 234.221  1.00 20.00     0.022 C 
HETATM    3  C12 225   386       0.154  33.923 232.721  1.00 20.00     0.069 C 
HETATM    4  N1  225   386       1.528  33.096 234.567  1.00 20.00    -0.362 N 
ATOM      5  H1  225   386       2.001  32.601 233.811  1.00  0.00     0.165 HD
HETATM    6  C5  225   386       2.029  32.924 235.808  1.00 20.00     0.022 C 
HETATM    7  C18 225   386       3.341  32.137 235.914  1.00 20.00     0.069 C 
HETATM    8  C4  225   386       1.406  33.553 236.896  1.00 20.00     0.073 C 
HETATM    9  C3  225   386       0.514  34.769 236.553  1.00 20.00     0.012 C 
ENDROOT
BRANCH   9  10
HETATM   10  C6  225   386       1.095  36.175 236.841  1.00 20.00    -0.000 A 
HETATM   11  C11 225   386       0.369  37.191 237.493  1.00 20.00     0.067 A 
HETATM   12  C10 225   386       0.959  38.448 237.698  1.00 20.00     0.056 A 
HETATM   13 CL2  225   386      -1.258  36.949 238.043  1.00 20.00    -0.082 Cl
HETATM   14 CL1  225   386       0.190  39.737 238.560  1.00 20.00    -0.083 Cl
HETATM   15  C9  225   386       2.257  38.704 237.252  1.00 20.00     0.026 A 
HETATM   16  C8  225   386       2.995  37.711 236.606  1.00 20.00     0.003 A 
HETATM   17  C7  225   386       2.400  36.464 236.414  1.00 20.00     0.014 A 
ENDBRANCH   9  10
BRANCH   1  18
HETATM   18  C13 225   386      -1.653  35.127 235.041  1.00 20.00     0.296 C 
HETATM   19  O1  225   386      -2.569  34.729 235.763  1.00 20.00    -0.259 OA
BRANCH  18  20
HETATM   20  O2  225   386      -1.865  36.104 234.108  1.00 20.00    -0.318 OA
BRANCH  20  21
HETATM   21  C14 225   386      -1.696  37.482 234.487  1.00 20.00     0.174 C 
HETATM   22  C15 225   386      -0.369  38.020 233.945  1.00 20.00     0.034 C 
ENDBRANCH  20  21
ENDBRANCH  18  20
ENDBRANCH   1  18
BRANCH   8  23
HETATM   23  C16 225   386       1.399  32.981 238.326  1.00 20.00     0.295 C 
HETATM   24  O3  225   386       1.989  33.570 239.233  1.00 20.00    -0.259 OA
BRANCH  23  25
HETATM   25  O4  225   386       0.766  31.794 238.561  1.00 20.00    -0.322 OA
HETATM   26  C17 225   386       1.563  30.655 238.915  1.00 20.00     0.213 C 
ENDBRANCH  23  25
ENDBRANCH   8  23
TORSDOF 6
ENDMDL
