MODEL 1
REMARK VINA RESULT:      -7.6      0.000      0.000
REMARK  1 active torsions:
REMARK  status: ('A' for Active; 'I' for Inactive)
REMARK    1  A    between atoms: C17_18  and  C20_21 
ROOT
HETATM    1  C1  STR  7012       0.381  37.060 231.690  1.00 20.00     0.022 C 
HETATM    2  C2  STR  7012      -0.406  36.732 230.426  1.00 20.00     0.084 C 
HETATM    3  C3  STR  7012      -0.358  35.269 230.102  1.00 20.00     0.149 C 
HETATM    4  O3  STR  7012      -0.428  34.863 228.939  1.00 20.00    -0.293 OA
HETATM    5  C4  STR  7012      -0.198  34.348 231.230  1.00 20.00     0.053 C 
HETATM    6  C5  STR  7012      -0.103  34.772 232.521  1.00 20.00    -0.068 C 
HETATM    7  C6  STR  7012      -0.106  33.748 233.631  1.00 20.00     0.035 C 
HETATM    8  C7  STR  7012       0.973  33.984 234.676  1.00 20.00     0.010 C 
HETATM    9  C8  STR  7012       0.945  35.415 235.186  1.00 20.00    -0.004 C 
HETATM   10  C9  STR  7012       1.079  36.407 234.017  1.00 20.00     0.002 C 
HETATM   11  C10 STR  7012      -0.004  36.235 232.922  1.00 20.00    -0.016 C 
HETATM   12  C11 STR  7012       1.191  37.857 234.529  1.00 20.00     0.007 C 
HETATM   13  C12 STR  7012       2.287  38.060 235.597  1.00 20.00     0.011 C 
HETATM   14  C13 STR  7012       2.147  37.054 236.738  1.00 20.00    -0.030 C 
HETATM   15  C14 STR  7012       2.098  35.650 236.163  1.00 20.00    -0.001 C 
HETATM   16  C15 STR  7012       2.244  34.725 237.371  1.00 20.00     0.006 C 
HETATM   17  C16 STR  7012       3.272  35.474 238.222  1.00 20.00     0.013 C 
HETATM   18  C17 STR  7012       3.363  36.917 237.672  1.00 20.00     0.063 C 
HETATM   19  C18 STR  7012       0.897  37.394 237.591  1.00 20.00     0.016 C 
HETATM   20  C19 STR  7012      -1.380  36.701 233.411  1.00 20.00     0.020 C 
ENDROOT
BRANCH  18  21
HETATM   21  C20 STR  7012       3.410  37.985 238.735  1.00 20.00     0.128 C 
HETATM   22  O20 STR  7012       3.606  39.154 238.431  1.00 20.00    -0.298 OA
HETATM   23  C21 STR  7012       3.248  37.574 240.154  1.00 20.00     0.091 C 
ENDBRANCH  18  21
TORSDOF 1
ENDMDL
MODEL 2
REMARK VINA RESULT:      -7.3      1.374      7.179
REMARK  1 active torsions:
REMARK  status: ('A' for Active; 'I' for Inactive)
REMARK    1  A    between atoms: C17_18  and  C20_21 
ROOT
HETATM    1  C1  STR  7012       2.552  35.542 238.329  1.00 20.00     0.022 C 
HETATM    2  C2  STR  7012       3.039  36.126 239.652  1.00 20.00     0.084 C 
HETATM    3  C3  STR  7012       3.743  37.435 239.459  1.00 20.00     0.149 C 
HETATM    4  O3  STR  7012       4.642  37.801 240.221  1.00 20.00    -0.293 OA
HETATM    5  C4  STR  7012       3.333  38.243 238.308  1.00 20.00     0.053 C 
HETATM    6  C5  STR  7012       2.354  37.852 237.445  1.00 20.00    -0.068 C 
HETATM    7  C6  STR  7012       1.882  38.820 236.385  1.00 20.00     0.035 C 
HETATM    8  C7  STR  7012       1.766  38.197 235.003  1.00 20.00     0.010 C 
HETATM    9  C8  STR  7012       0.952  36.914 235.043  1.00 20.00    -0.004 C 
HETATM   10  C9  STR  7012       1.559  35.920 236.050  1.00 20.00     0.002 C 
HETATM   11  C10 STR  7012       1.689  36.486 237.487  1.00 20.00    -0.016 C 
HETATM   12  C11 STR  7012       0.828  34.564 236.002  1.00 20.00     0.007 C 
HETATM   13  C12 STR  7012       0.715  33.965 234.583  1.00 20.00     0.011 C 
HETATM   14  C13 STR  7012       0.128  34.972 233.597  1.00 20.00    -0.030 C 
HETATM   15  C14 STR  7012       0.931  36.260 233.661  1.00 20.00    -0.001 C 
HETATM   16  C15 STR  7012       0.455  37.080 232.461  1.00 20.00     0.006 C 
HETATM   17  C16 STR  7012       0.285  36.002 231.387  1.00 20.00     0.013 C 
HETATM   18  C17 STR  7012       0.291  34.632 232.105  1.00 20.00     0.063 C 
HETATM   19  C18 STR  7012      -1.377  35.191 233.898  1.00 20.00     0.016 C 
HETATM   20  C19 STR  7012       0.321  36.631 238.163  1.00 20.00     0.020 C 
ENDROOT
BRANCH  18  21
HETATM   21  C20 STR  7012      -0.753  33.665 231.605  1.00 20.00     0.128 C 
HETATM   22  O20 STR  7012      -0.743  32.498 231.972  1.00 20.00    -0.298 OA
HETATM   23  C21 STR  7012      -1.766  34.161 230.637  1.00 20.00     0.091 C 
ENDBRANCH  18  21
TORSDOF 1
ENDMDL
MODEL 3
REMARK VINA RESULT:      -7.2      1.730      2.600
REMARK  1 active torsions:
REMARK  status: ('A' for Active; 'I' for Inactive)
REMARK    1  A    between atoms: C17_18  and  C20_21 
ROOT
HETATM    1  C1  STR  7012       0.721  35.566 229.469  1.00 20.00     0.022 C 
HETATM    2  C2  STR  7012       0.347  34.954 228.122  1.00 20.00     0.084 C 
HETATM    3  C3  STR  7012       0.334  33.456 228.175  1.00 20.00     0.149 C 
HETATM    4  O3  STR  7012       0.595  32.774 227.180  1.00 20.00    -0.293 OA
HETATM    5  C4  STR  7012       0.024  32.842 229.468  1.00 20.00     0.053 C 
HETATM    6  C5  STR  7012      -0.253  33.574 230.584  1.00 20.00    -0.068 C 
HETATM    7  C6  STR  7012      -0.723  32.861 231.829  1.00 20.00     0.035 C 
HETATM    8  C7  STR  7012      -0.015  33.320 233.094  1.00 20.00     0.010 C 
HETATM    9  C8  STR  7012      -0.047  34.833 233.226  1.00 20.00    -0.004 C 
HETATM   10  C9  STR  7012       0.563  35.497 231.978  1.00 20.00     0.002 C 
HETATM   11  C10 STR  7012      -0.126  35.087 230.652  1.00 20.00    -0.016 C 
HETATM   12  C11 STR  7012       0.664  37.025 232.155  1.00 20.00     0.007 C 
HETATM   13  C12 STR  7012       1.378  37.458 233.455  1.00 20.00     0.011 C 
HETATM   14  C13 STR  7012       0.770  36.774 234.678  1.00 20.00    -0.030 C 
HETATM   15  C14 STR  7012       0.753  35.273 234.454  1.00 20.00    -0.001 C 
HETATM   16  C15 STR  7012       0.402  34.676 235.817  1.00 20.00     0.006 C 
HETATM   17  C16 STR  7012       1.181  35.585 236.772  1.00 20.00     0.013 C 
HETATM   18  C17 STR  7012       1.601  36.841 235.972  1.00 20.00     0.063 C 
HETATM   19  C18 STR  7012      -0.641  37.352 234.960  1.00 20.00     0.016 C 
HETATM   20  C19 STR  7012      -1.526  35.700 230.530  1.00 20.00     0.020 C 
ENDROOT
BRANCH  18  21
HETATM   21  C20 STR  7012       1.424  38.140 236.718  1.00 20.00     0.128 C 
HETATM   22  O20 STR  7012       1.861  39.185 236.254  1.00 20.00    -0.298 OA
HETATM   23  C21 STR  7012       0.741  38.107 238.037  1.00 20.00     0.091 C 
ENDBRANCH  18  21
TORSDOF 1
ENDMDL
MODEL 4
REMARK VINA RESULT:      -6.9      1.503      2.044
REMARK  1 active torsions:
REMARK  status: ('A' for Active; 'I' for Inactive)
REMARK    1  A    between atoms: C17_18  and  C20_21 
ROOT
HETATM    1  C1  STR  7012      -0.240  34.488 231.693  1.00 20.00     0.022 C 
HETATM    2  C2  STR  7012      -0.892  33.499 230.733  1.00 20.00     0.084 C 
HETATM    3  C3  STR  7012      -0.273  32.137 230.830  1.00 20.00     0.149 C 
HETATM    4  O3  STR  7012      -0.233  31.376 229.859  1.00 20.00    -0.293 OA
HETATM    5  C4  STR  7012       0.306  31.764 232.123  1.00 20.00     0.053 C 
HETATM    6  C5  STR  7012       0.288  32.592 233.205  1.00 20.00    -0.068 C 
HETATM    7  C6  STR  7012       0.758  32.065 234.540  1.00 20.00     0.035 C 
HETATM    8  C7  STR  7012       1.702  33.009 235.267  1.00 20.00     0.010 C 
HETATM    9  C8  STR  7012       1.124  34.412 235.351  1.00 20.00    -0.004 C 
HETATM   10  C9  STR  7012       0.783  34.941 233.946  1.00 20.00     0.002 C 
HETATM   11  C10 STR  7012      -0.192  34.033 233.155  1.00 20.00    -0.016 C 
HETATM   12  C11 STR  7012       0.325  36.412 234.002  1.00 20.00     0.007 C 
HETATM   13  C12 STR  7012       1.300  37.342 234.757  1.00 20.00     0.011 C 
HETATM   14  C13 STR  7012       1.639  36.789 236.140  1.00 20.00    -0.030 C 
HETATM   15  C14 STR  7012       2.132  35.360 236.000  1.00 20.00    -0.001 C 
HETATM   16  C15 STR  7012       2.704  35.005 237.374  1.00 20.00     0.006 C 
HETATM   17  C16 STR  7012       3.383  36.315 237.783  1.00 20.00     0.013 C 
HETATM   18  C17 STR  7012       2.853  37.423 236.843  1.00 20.00     0.063 C 
HETATM   19  C18 STR  7012       0.405  36.906 237.072  1.00 20.00     0.016 C 
HETATM   20  C19 STR  7012      -1.612  34.094 233.731  1.00 20.00     0.020 C 
ENDROOT
BRANCH  18  21
HETATM   21  C20 STR  7012       2.520  38.719 237.537  1.00 20.00     0.128 C 
HETATM   22  O20 STR  7012       1.993  39.635 236.920  1.00 20.00    -0.298 OA
HETATM   23  C21 STR  7012       2.878  38.862 238.973  1.00 20.00     0.091 C 
ENDBRANCH  18  21
TORSDOF 1
ENDMDL
MODEL 5
REMARK VINA RESULT:      -6.9      1.606      2.945
REMARK  1 active torsions:
REMARK  status: ('A' for Active; 'I' for Inactive)
REMARK    1  A    between atoms: C17_18  and  C20_21 
ROOT
HETATM    1  C1  STR  7012      -0.543  34.704 233.011  1.00 20.00     0.022 C 
HETATM    2  C2  STR  7012      -1.206  34.384 231.675  1.00 20.00     0.084 C 
HETATM    3  C3  STR  7012      -2.388  35.268 231.413  1.00 20.00     0.149 C 
HETATM    4  O3  STR  7012      -3.347  34.880 230.740  1.00 20.00    -0.293 OA
HETATM    5  C4  STR  7012      -2.362  36.603 232.016  1.00 20.00     0.053 C 
HETATM    6  C5  STR  7012      -1.322  37.048 232.775  1.00 20.00    -0.068 C 
HETATM    7  C6  STR  7012      -1.304  38.492 233.218  1.00 20.00     0.035 C 
HETATM    8  C7  STR  7012      -0.962  38.671 234.689  1.00 20.00     0.010 C 
HETATM    9  C8  STR  7012       0.306  37.919 235.056  1.00 20.00    -0.004 C 
HETATM   10  C9  STR  7012       0.174  36.428 234.695  1.00 20.00     0.002 C 
HETATM   11  C10 STR  7012      -0.155  36.173 233.202  1.00 20.00    -0.016 C 
HETATM   12  C11 STR  7012       1.396  35.627 235.186  1.00 20.00     0.007 C 
HETATM   13  C12 STR  7012       1.723  35.840 236.681  1.00 20.00     0.011 C 
HETATM   14  C13 STR  7012       1.831  37.325 237.022  1.00 20.00    -0.030 C 
HETATM   15  C14 STR  7012       0.573  38.037 236.557  1.00 20.00    -0.001 C 
HETATM   16  C15 STR  7012       0.653  39.428 237.187  1.00 20.00     0.006 C 
HETATM   17  C16 STR  7012       1.234  39.118 238.570  1.00 20.00     0.013 C 
HETATM   18  C17 STR  7012       1.800  37.679 238.519  1.00 20.00     0.063 C 
HETATM   19  C18 STR  7012       3.119  37.919 236.395  1.00 20.00     0.016 C 
HETATM   20  C19 STR  7012       1.044  36.483 232.299  1.00 20.00     0.020 C 
ENDROOT
BRANCH  18  21
HETATM   21  C20 STR  7012       3.142  37.516 239.189  1.00 20.00     0.128 C 
HETATM   22  O20 STR  7012       3.621  36.403 239.353  1.00 20.00    -0.298 OA
HETATM   23  C21 STR  7012       3.841  38.736 239.671  1.00 20.00     0.091 C 
ENDBRANCH  18  21
TORSDOF 1
ENDMDL
MODEL 6
REMARK VINA RESULT:      -6.6      1.706      7.050
REMARK  1 active torsions:
REMARK  status: ('A' for Active; 'I' for Inactive)
REMARK    1  A    between atoms: C17_18  and  C20_21 
ROOT
HETATM    1  C1  STR  7012       2.649  35.403 236.419  1.00 20.00     0.022 C 
HETATM    2  C2  STR  7012       3.186  34.976 237.782  1.00 20.00     0.084 C 
HETATM    3  C3  STR  7012       2.963  36.031 238.824  1.00 20.00     0.149 C 
HETATM    4  O3  STR  7012       3.732  36.164 239.781  1.00 20.00    -0.293 OA
HETATM    5  C4  STR  7012       1.807  36.911 238.638  1.00 20.00     0.053 C 
HETATM    6  C5  STR  7012       0.954  36.793 237.582  1.00 20.00    -0.068 C 
HETATM    7  C6  STR  7012      -0.301  37.633 237.557  1.00 20.00     0.035 C 
HETATM    8  C7  STR  7012      -0.554  38.305 236.217  1.00 20.00     0.010 C 
HETATM    9  C8  STR  7012      -0.484  37.305 235.076  1.00 20.00    -0.004 C 
HETATM   10  C9  STR  7012       0.870  36.573 235.081  1.00 20.00     0.002 C 
HETATM   11  C10 STR  7012       1.184  35.848 236.414  1.00 20.00    -0.016 C 
HETATM   12  C11 STR  7012       1.011  35.656 233.850  1.00 20.00     0.007 C 
HETATM   13  C12 STR  7012       0.736  36.367 232.507  1.00 20.00     0.011 C 
HETATM   14  C13 STR  7012      -0.603  37.102 232.529  1.00 20.00    -0.030 C 
HETATM   15  C14 STR  7012      -0.647  38.023 233.735  1.00 20.00    -0.001 C 
HETATM   16  C15 STR  7012      -1.877  38.903 233.512  1.00 20.00     0.006 C 
HETATM   17  C16 STR  7012      -1.820  39.153 232.003  1.00 20.00     0.013 C 
HETATM   18  C17 STR  7012      -0.831  38.126 231.403  1.00 20.00     0.063 C 
HETATM   19  C18 STR  7012      -1.767  36.078 232.516  1.00 20.00     0.016 C 
HETATM   20  C19 STR  7012       0.298  34.611 236.606  1.00 20.00     0.020 C 
ENDROOT
BRANCH  18  21
HETATM   21  C20 STR  7012      -1.299  37.492 230.117  1.00 20.00     0.128 C 
HETATM   22  O20 STR  7012      -0.540  36.791 229.460  1.00 20.00    -0.298 OA
HETATM   23  C21 STR  7012      -2.685  37.768 229.659  1.00 20.00     0.091 C 
ENDBRANCH  18  21
TORSDOF 1
ENDMDL
MODEL 7
REMARK VINA RESULT:      -6.5      1.763      7.310
REMARK  1 active torsions:
REMARK  status: ('A' for Active; 'I' for Inactive)
REMARK    1  A    between atoms: C17_18  and  C20_21 
ROOT
HETATM    1  C1  STR  7012       1.869  38.101 235.419  1.00 20.00     0.022 C 
HETATM    2  C2  STR  7012       2.253  38.291 236.883  1.00 20.00     0.084 C 
HETATM    3  C3  STR  7012       1.057  38.581 237.740  1.00 20.00     0.149 C 
HETATM    4  O3  STR  7012       1.148  39.269 238.761  1.00 20.00    -0.293 OA
HETATM    5  C4  STR  7012      -0.225  38.032 237.294  1.00 20.00     0.053 C 
HETATM    6  C5  STR  7012      -0.353  37.282 236.163  1.00 20.00    -0.068 C 
HETATM    7  C6  STR  7012      -1.678  36.620 235.868  1.00 20.00     0.035 C 
HETATM    8  C7  STR  7012      -2.138  36.799 234.430  1.00 20.00     0.010 C 
HETATM    9  C8  STR  7012      -1.046  36.408 233.448  1.00 20.00    -0.004 C 
HETATM   10  C9  STR  7012       0.239  37.211 233.723  1.00 20.00     0.002 C 
HETATM   11  C10 STR  7012       0.775  37.058 235.169  1.00 20.00    -0.016 C 
HETATM   12  C11 STR  7012       1.311  36.927 232.652  1.00 20.00     0.007 C 
HETATM   13  C12 STR  7012       0.808  37.106 231.202  1.00 20.00     0.011 C 
HETATM   14  C13 STR  7012      -0.477  36.317 230.956  1.00 20.00    -0.030 C 
HETATM   15  C14 STR  7012      -1.501  36.687 232.015  1.00 20.00    -0.001 C 
HETATM   16  C15 STR  7012      -2.813  36.076 231.523  1.00 20.00     0.006 C 
HETATM   17  C16 STR  7012      -2.730  36.319 230.014  1.00 20.00     0.013 C 
HETATM   18  C17 STR  7012      -1.264  36.684 229.685  1.00 20.00     0.063 C 
HETATM   19  C18 STR  7012      -0.167  34.798 230.931  1.00 20.00     0.016 C 
HETATM   20  C19 STR  7012       1.366  35.664 235.408  1.00 20.00     0.020 C 
ENDROOT
BRANCH  18  21
HETATM   21  C20 STR  7012      -0.720  36.019 228.446  1.00 20.00     0.128 C 
HETATM   22  O20 STR  7012       0.366  36.350 227.990  1.00 20.00    -0.298 OA
HETATM   23  C21 STR  7012      -1.552  34.982 227.781  1.00 20.00     0.091 C 
ENDBRANCH  18  21
TORSDOF 1
ENDMDL
MODEL 8
REMARK VINA RESULT:      -6.5      1.748      6.777
REMARK  1 active torsions:
REMARK  status: ('A' for Active; 'I' for Inactive)
REMARK    1  A    between atoms: C17_18  and  C20_21 
ROOT
HETATM    1  C1  STR  7012       2.328  37.429 238.204  1.00 20.00     0.022 C 
HETATM    2  C2  STR  7012       3.255  37.238 239.400  1.00 20.00     0.084 C 
HETATM    3  C3  STR  7012       3.252  35.821 239.887  1.00 20.00     0.149 C 
HETATM    4  O3  STR  7012       3.456  35.547 241.073  1.00 20.00    -0.293 OA
HETATM    5  C4  STR  7012       2.969  34.781 238.895  1.00 20.00     0.053 C 
HETATM    6  C5  STR  7012       2.727  35.060 237.584  1.00 20.00    -0.068 C 
HETATM    7  C6  STR  7012       2.609  33.918 236.602  1.00 20.00     0.035 C 
HETATM    8  C7  STR  7012       1.417  34.044 235.666  1.00 20.00     0.010 C 
HETATM    9  C8  STR  7012       1.380  35.409 235.000  1.00 20.00    -0.004 C 
HETATM   10  C9  STR  7012       1.374  36.527 236.059  1.00 20.00     0.002 C 
HETATM   11  C10 STR  7012       2.575  36.469 237.036  1.00 20.00    -0.016 C 
HETATM   12  C11 STR  7012       1.197  37.911 235.404  1.00 20.00     0.007 C 
HETATM   13  C12 STR  7012      -0.015  38.002 234.451  1.00 20.00     0.011 C 
HETATM   14  C13 STR  7012       0.000  36.874 233.421  1.00 20.00    -0.030 C 
HETATM   15  C14 STR  7012       0.122  35.542 234.140  1.00 20.00    -0.001 C 
HETATM   16  C15 STR  7012      -0.156  34.489 233.067  1.00 20.00     0.006 C 
HETATM   17  C16 STR  7012      -1.278  35.147 232.259  1.00 20.00     0.013 C 
HETATM   18  C17 STR  7012      -1.313  36.642 232.652  1.00 20.00     0.063 C 
HETATM   19  C18 STR  7012       1.143  37.107 232.399  1.00 20.00     0.016 C 
HETATM   20  C19 STR  7012       3.884  36.868 236.345  1.00 20.00     0.020 C 
ENDROOT
BRANCH  18  21
HETATM   21  C20 STR  7012      -1.487  37.586 231.489  1.00 20.00     0.128 C 
HETATM   22  O20 STR  7012      -1.697  38.776 231.682  1.00 20.00    -0.298 OA
HETATM   23  C21 STR  7012      -1.430  37.026 230.113  1.00 20.00     0.091 C 
ENDBRANCH  18  21
TORSDOF 1
ENDMDL
MODEL 9
REMARK VINA RESULT:      -6.4      1.811      6.989
REMARK  1 active torsions:
REMARK  status: ('A' for Active; 'I' for Inactive)
REMARK    1  A    between atoms: C17_18  and  C20_21 
ROOT
HETATM    1  C1  STR  7012       2.946  36.186 237.818  1.00 20.00     0.022 C 
HETATM    2  C2  STR  7012       3.319  37.228 238.868  1.00 20.00     0.084 C 
HETATM    3  C3  STR  7012       3.349  38.612 238.293  1.00 20.00     0.149 C 
HETATM    4  O3  STR  7012       4.100  39.482 238.744  1.00 20.00    -0.293 OA
HETATM    5  C4  STR  7012       2.465  38.875 237.154  1.00 20.00     0.053 C 
HETATM    6  C5  STR  7012       1.638  37.928 236.629  1.00 20.00    -0.068 C 
HETATM    7  C6  STR  7012       0.644  38.332 235.566  1.00 20.00     0.035 C 
HETATM    8  C7  STR  7012       0.609  37.383 234.378  1.00 20.00     0.010 C 
HETATM    9  C8  STR  7012       0.448  35.941 234.828  1.00 20.00    -0.004 C 
HETATM   10  C9  STR  7012       1.566  35.554 235.813  1.00 20.00     0.002 C 
HETATM   11  C10 STR  7012       1.646  36.471 237.059  1.00 20.00    -0.016 C 
HETATM   12  C11 STR  7012       1.497  34.057 236.171  1.00 20.00     0.007 C 
HETATM   13  C12 STR  7012       1.450  33.121 234.943  1.00 20.00     0.011 C 
HETATM   14  C13 STR  7012       0.347  33.534 233.970  1.00 20.00    -0.030 C 
HETATM   15  C14 STR  7012       0.511  35.003 233.622  1.00 20.00    -0.001 C 
HETATM   16  C15 STR  7012      -0.443  35.238 232.450  1.00 20.00     0.006 C 
HETATM   17  C16 STR  7012      -0.283  33.945 231.646  1.00 20.00     0.013 C 
HETATM   18  C17 STR  7012       0.421  32.916 232.562  1.00 20.00     0.063 C 
HETATM   19  C18 STR  7012      -1.042  33.217 234.582  1.00 20.00     0.016 C 
HETATM   20  C19 STR  7012       0.465  36.237 238.009  1.00 20.00     0.020 C 
ENDROOT
BRANCH  18  21
HETATM   21  C20 STR  7012      -0.161  31.527 232.498  1.00 20.00     0.128 C 
HETATM   22  O20 STR  7012       0.413  30.589 233.035  1.00 20.00    -0.298 OA
HETATM   23  C21 STR  7012      -1.425  31.327 231.742  1.00 20.00     0.091 C 
ENDBRANCH  18  21
TORSDOF 1
ENDMDL
