MODEL 1
REMARK VINA RESULT:      -6.5      0.000      0.000
REMARK  6 active torsions:
REMARK  status: ('A' for Active; 'I' for Inactive)
REMARK    1  A    between atoms: C1_1  and  C7_6 
REMARK    2  A    between atoms: C3_3  and  O1_8 
REMARK    3  A    between atoms: C4_4  and  O2_10 
REMARK    4  A    between atoms: C7_6  and  C8_14 
REMARK    5  A    between atoms: C7_6  and  O3_12 
REMARK    6  A    between atoms: C8_14  and  N1_15 
ROOT
HETATM    1  C1  ALE  1572       1.258  43.393 229.249  1.00 20.00    -0.025 A 
HETATM    2  C2  ALE  1572       1.755  43.965 230.418  1.00 20.00     0.049 A 
HETATM    3  C3  ALE  1572       3.124  43.937 230.680  1.00 20.00     0.099 A 
HETATM    4  C4  ALE  1572       3.998  43.338 229.765  1.00 20.00     0.098 A 
HETATM    5  C5  ALE  1572       3.501  42.770 228.598  1.00 20.00     0.040 A 
HETATM    6  C6  ALE  1572       2.135  42.798 228.344  1.00 20.00     0.012 A 
ENDROOT
BRANCH   1   7
HETATM    7  C7  ALE  1572      -0.249  43.412 228.937  1.00 20.00     0.176 C 
BRANCH   7   8
HETATM    8  C8  ALE  1572      -0.559  42.601 227.665  1.00 20.00     0.268 C 
BRANCH   8   9
HETATM    9  N1  ALE  1572      -0.930  43.498 226.563  1.00 20.00    -0.076 N 
HETATM   10  C9  ALE  1572      -2.054  42.928 225.802  1.00 20.00     0.267 C 
ATOM     11  H12 ALE  1572      -1.130  44.443 226.891  1.00  0.00     0.276 HD
ATOM     12  H11 ALE  1572      -0.133  43.715 225.963  1.00  0.00     0.276 HD
ENDBRANCH   8   9
ENDBRANCH   7   8
BRANCH   7  13
HETATM   13  O3  ALE  1572      -0.971  42.903 230.066  1.00 20.00    -0.389 OA
ATOM     14  H3  ALE  1572      -1.898  43.078 229.950  1.00  0.00     0.210 HD
ENDBRANCH   7  13
ENDBRANCH   1   7
BRANCH   3  15
HETATM   15  O1  ALE  1572       3.586  44.501 231.830  1.00 20.00    -0.358 OA
ATOM     16  H1  ALE  1572       4.470  44.847 231.848  1.00  0.00     0.218 HD
ENDBRANCH   3  15
BRANCH   4  17
HETATM   17  O2  ALE  1572       5.341  43.294 229.996  1.00 20.00    -0.358 OA
ATOM     18  H2  ALE  1572       5.864  44.086 230.016  1.00  0.00     0.218 HD
ENDBRANCH   4  17
TORSDOF 6
ENDMDL
MODEL 2
REMARK VINA RESULT:      -6.0      1.738      1.921
REMARK  6 active torsions:
REMARK  status: ('A' for Active; 'I' for Inactive)
REMARK    1  A    between atoms: C1_1  and  C7_6 
REMARK    2  A    between atoms: C3_3  and  O1_8 
REMARK    3  A    between atoms: C4_4  and  O2_10 
REMARK    4  A    between atoms: C7_6  and  C8_14 
REMARK    5  A    between atoms: C7_6  and  O3_12 
REMARK    6  A    between atoms: C8_14  and  N1_15 
ROOT
HETATM    1  C1  ALE  1572       1.655  43.137 229.110  1.00 20.00    -0.025 A 
HETATM    2  C2  ALE  1572       1.819  43.789 230.331  1.00 20.00     0.049 A 
HETATM    3  C3  ALE  1572       3.098  43.971 230.855  1.00 20.00     0.099 A 
HETATM    4  C4  ALE  1572       4.215  43.505 230.153  1.00 20.00     0.098 A 
HETATM    5  C5  ALE  1572       4.049  42.857 228.933  1.00 20.00     0.040 A 
HETATM    6  C6  ALE  1572       2.772  42.675 228.417  1.00 20.00     0.012 A 
ENDROOT
BRANCH   1   7
HETATM    7  C7  ALE  1572       0.253  42.924 228.511  1.00 20.00     0.176 C 
BRANCH   7   8
HETATM    8  C8  ALE  1572      -0.841  43.388 229.490  1.00 20.00     0.268 C 
BRANCH   8   9
HETATM    9  N1  ALE  1572      -1.755  42.280 229.800  1.00 20.00    -0.076 N 
HETATM   10  C9  ALE  1572      -1.086  40.990 229.560  1.00 20.00     0.267 C 
ATOM     11  H12 ALE  1572      -2.127  42.346 230.747  1.00  0.00     0.276 HD
ATOM     12  H11 ALE  1572      -2.634  42.356 229.289  1.00  0.00     0.276 HD
ENDBRANCH   8   9
ENDBRANCH   7   8
BRANCH   7  13
HETATM   13  O3  ALE  1572       0.162  43.622 227.262  1.00 20.00    -0.389 OA
ATOM     14  H3  ALE  1572       0.435  43.044 226.559  1.00  0.00     0.210 HD
ENDBRANCH   7  13
ENDBRANCH   1   7
BRANCH   3  15
HETATM   15  O1  ALE  1572       3.234  44.608 232.051  1.00 20.00    -0.358 OA
ATOM     16  H1  ALE  1572       3.205  45.557 232.071  1.00  0.00     0.218 HD
ENDBRANCH   3  15
BRANCH   4  17
HETATM   17  O2  ALE  1572       5.477  43.667 230.642  1.00 20.00    -0.358 OA
ATOM     18  H2  ALE  1572       5.654  44.261 231.361  1.00  0.00     0.218 HD
ENDBRANCH   4  17
TORSDOF 6
ENDMDL
MODEL 3
REMARK VINA RESULT:      -5.8      2.607      5.579
REMARK  6 active torsions:
REMARK  status: ('A' for Active; 'I' for Inactive)
REMARK    1  A    between atoms: C1_1  and  C7_6 
REMARK    2  A    between atoms: C3_3  and  O1_8 
REMARK    3  A    between atoms: C4_4  and  O2_10 
REMARK    4  A    between atoms: C7_6  and  C8_14 
REMARK    5  A    between atoms: C7_6  and  O3_12 
REMARK    6  A    between atoms: C8_14  and  N1_15 
ROOT
HETATM    1  C1  ALE  1572      -0.142  43.204 229.152  1.00 20.00    -0.025 A 
HETATM    2  C2  ALE  1572      -0.256  43.565 227.811  1.00 20.00     0.049 A 
HETATM    3  C3  ALE  1572      -1.366  43.160 227.073  1.00 20.00     0.099 A 
HETATM    4  C4  ALE  1572      -2.368  42.393 227.679  1.00 20.00     0.098 A 
HETATM    5  C5  ALE  1572      -2.254  42.035 229.018  1.00 20.00     0.040 A 
HETATM    6  C6  ALE  1572      -1.143  42.439 229.749  1.00 20.00     0.012 A 
ENDROOT
BRANCH   1   7
HETATM    7  C7  ALE  1572       1.074  43.640 229.989  1.00 20.00     0.176 C 
BRANCH   7   8
HETATM    8  C8  ALE  1572       2.280  43.955 229.084  1.00 20.00     0.268 C 
BRANCH   8   9
HETATM    9  N1  ALE  1572       3.267  44.765 229.810  1.00 20.00    -0.076 N 
HETATM   10  C9  ALE  1572       4.334  43.903 230.347  1.00 20.00     0.267 C 
ATOM     11  H12 ALE  1572       3.640  45.519 229.234  1.00  0.00     0.276 HD
ATOM     12  H11 ALE  1572       2.833  45.334 230.537  1.00  0.00     0.276 HD
ENDBRANCH   8   9
ENDBRANCH   7   8
BRANCH   7  13
HETATM   13  O3  ALE  1572       0.715  44.774 230.789  1.00 20.00    -0.389 OA
ATOM     14  H3  ALE  1572       1.012  44.634 231.681  1.00  0.00     0.210 HD
ENDBRANCH   7  13
ENDBRANCH   1   7
BRANCH   3  15
HETATM   15  O1  ALE  1572      -1.454  43.524 225.763  1.00 20.00    -0.358 OA
ATOM     16  H1  ALE  1572      -0.899  44.226 225.444  1.00  0.00     0.218 HD
ENDBRANCH   3  15
BRANCH   4  17
HETATM   17  O2  ALE  1572      -3.463  41.980 226.981  1.00 20.00    -0.358 OA
ATOM     18  H2  ALE  1572      -3.871  41.142 227.156  1.00  0.00     0.218 HD
ENDBRANCH   4  17
TORSDOF 6
ENDMDL
MODEL 4
REMARK VINA RESULT:      -5.8      2.876      5.265
REMARK  6 active torsions:
REMARK  status: ('A' for Active; 'I' for Inactive)
REMARK    1  A    between atoms: C1_1  and  C7_6 
REMARK    2  A    between atoms: C3_3  and  O1_8 
REMARK    3  A    between atoms: C4_4  and  O2_10 
REMARK    4  A    between atoms: C7_6  and  C8_14 
REMARK    5  A    between atoms: C7_6  and  O3_12 
REMARK    6  A    between atoms: C8_14  and  N1_15 
ROOT
HETATM    1  C1  ALE  1572       0.053  43.800 228.326  1.00 20.00    -0.025 A 
HETATM    2  C2  ALE  1572      -0.174  43.041 229.472  1.00 20.00     0.049 A 
HETATM    3  C3  ALE  1572      -1.262  42.172 229.527  1.00 20.00     0.099 A 
HETATM    4  C4  ALE  1572      -2.123  42.059 228.429  1.00 20.00     0.098 A 
HETATM    5  C5  ALE  1572      -1.893  42.815 227.285  1.00 20.00     0.040 A 
HETATM    6  C6  ALE  1572      -0.809  43.683 227.237  1.00 20.00     0.012 A 
ENDROOT
BRANCH   1   7
HETATM    7  C7  ALE  1572       1.248  44.766 228.242  1.00 20.00     0.176 C 
BRANCH   7   8
HETATM    8  C8  ALE  1572       2.540  44.090 228.739  1.00 20.00     0.268 C 
BRANCH   8   9
HETATM    9  N1  ALE  1572       3.080  44.808 229.901  1.00 20.00    -0.076 N 
HETATM   10  C9  ALE  1572       4.323  44.167 230.361  1.00 20.00     0.267 C 
ATOM     11  H12 ALE  1572       3.210  45.801 229.709  1.00  0.00     0.276 HD
ATOM     12  H11 ALE  1572       2.393  44.891 230.651  1.00  0.00     0.276 HD
ENDBRANCH   8   9
ENDBRANCH   7   8
BRANCH   7  13
HETATM   13  O3  ALE  1572       1.391  45.226 226.891  1.00 20.00    -0.389 OA
ATOM     14  H3  ALE  1572       0.999  44.592 226.302  1.00  0.00     0.210 HD
ENDBRANCH   7  13
ENDBRANCH   1   7
BRANCH   3  15
HETATM   15  O1  ALE  1572      -1.465  41.441 230.659  1.00 20.00    -0.358 OA
ATOM     16  H1  ALE  1572      -2.328  41.440 231.055  1.00  0.00     0.218 HD
ENDBRANCH   3  15
BRANCH   4  17
HETATM   17  O2  ALE  1572      -3.196  41.219 228.455  1.00 20.00    -0.358 OA
ATOM     18  H2  ALE  1572      -3.085  40.277 228.426  1.00  0.00     0.218 HD
ENDBRANCH   4  17
TORSDOF 6
ENDMDL
MODEL 5
REMARK VINA RESULT:      -5.5      1.829      2.420
REMARK  6 active torsions:
REMARK  status: ('A' for Active; 'I' for Inactive)
REMARK    1  A    between atoms: C1_1  and  C7_6 
REMARK    2  A    between atoms: C3_3  and  O1_8 
REMARK    3  A    between atoms: C4_4  and  O2_10 
REMARK    4  A    between atoms: C7_6  and  C8_14 
REMARK    5  A    between atoms: C7_6  and  O3_12 
REMARK    6  A    between atoms: C8_14  and  N1_15 
ROOT
HETATM    1  C1  ALE  1572       1.070  43.236 228.241  1.00 20.00    -0.025 A 
HETATM    2  C2  ALE  1572       2.236  42.478 228.334  1.00 20.00     0.049 A 
HETATM    3  C3  ALE  1572       3.350  42.993 228.994  1.00 20.00     0.099 A 
HETATM    4  C4  ALE  1572       3.295  44.269 229.568  1.00 20.00     0.098 A 
HETATM    5  C5  ALE  1572       2.130  45.023 229.477  1.00 20.00     0.040 A 
HETATM    6  C6  ALE  1572       1.024  44.506 228.814  1.00 20.00     0.012 A 
ENDROOT
BRANCH   1   7
HETATM    7  C7  ALE  1572      -0.173  42.689 227.518  1.00 20.00     0.176 C 
BRANCH   7   8
HETATM    8  C8  ALE  1572      -1.331  42.460 228.508  1.00 20.00     0.268 C 
BRANCH   8   9
HETATM    9  N1  ALE  1572      -2.604  42.330 227.787  1.00 20.00    -0.076 N 
HETATM   10  C9  ALE  1572      -3.383  41.205 228.332  1.00 20.00     0.267 C 
ATOM     11  H12 ALE  1572      -3.136  43.200 227.791  1.00  0.00     0.276 HD
ATOM     12  H11 ALE  1572      -2.465  42.245 226.780  1.00  0.00     0.276 HD
ENDBRANCH   8   9
ENDBRANCH   7   8
BRANCH   7  13
HETATM   13  O3  ALE  1572      -0.553  43.599 226.477  1.00 20.00    -0.389 OA
ATOM     14  H3  ALE  1572      -1.288  43.235 225.997  1.00  0.00     0.210 HD
ENDBRANCH   7  13
ENDBRANCH   1   7
BRANCH   3  15
HETATM   15  O1  ALE  1572       4.479  42.235 229.070  1.00 20.00    -0.358 OA
ATOM     16  H1  ALE  1572       5.255  42.520 228.602  1.00  0.00     0.218 HD
ENDBRANCH   3  15
BRANCH   4  17
HETATM   17  O2  ALE  1572       4.369  44.799 230.217  1.00 20.00    -0.358 OA
ATOM     18  H2  ALE  1572       5.114  45.142 229.739  1.00  0.00     0.218 HD
ENDBRANCH   4  17
TORSDOF 6
ENDMDL
MODEL 6
REMARK VINA RESULT:      -5.5      2.920      3.400
REMARK  6 active torsions:
REMARK  status: ('A' for Active; 'I' for Inactive)
REMARK    1  A    between atoms: C1_1  and  C7_6 
REMARK    2  A    between atoms: C3_3  and  O1_8 
REMARK    3  A    between atoms: C4_4  and  O2_10 
REMARK    4  A    between atoms: C7_6  and  C8_14 
REMARK    5  A    between atoms: C7_6  and  O3_12 
REMARK    6  A    between atoms: C8_14  and  N1_15 
ROOT
HETATM    1  C1  ALE  1572      -0.301  42.385 229.133  1.00 20.00    -0.025 A 
HETATM    2  C2  ALE  1572      -0.403  43.660 229.687  1.00 20.00     0.049 A 
HETATM    3  C3  ALE  1572       0.692  44.522 229.653  1.00 20.00     0.099 A 
HETATM    4  C4  ALE  1572       1.890  44.109 229.060  1.00 20.00     0.098 A 
HETATM    5  C5  ALE  1572       1.989  42.837 228.506  1.00 20.00     0.040 A 
HETATM    6  C6  ALE  1572       0.896  41.980 228.545  1.00 20.00     0.012 A 
ENDROOT
BRANCH   1   7
HETATM    7  C7  ALE  1572      -1.495  41.414 229.158  1.00 20.00     0.176 C 
BRANCH   7   8
HETATM    8  C8  ALE  1572      -1.128  40.108 229.886  1.00 20.00     0.268 C 
BRANCH   8   9
HETATM    9  N1  ALE  1572      -1.791  40.047 231.196  1.00 20.00    -0.076 N 
HETATM   10  C9  ALE  1572      -2.651  38.854 231.274  1.00 20.00     0.267 C 
ATOM     11  H12 ALE  1572      -1.122  40.087 231.965  1.00  0.00     0.276 HD
ATOM     12  H11 ALE  1572      -2.307  40.903 231.402  1.00  0.00     0.276 HD
ENDBRANCH   8   9
ENDBRANCH   7   8
BRANCH   7  13
HETATM   13  O3  ALE  1572      -2.615  42.058 229.780  1.00 20.00    -0.389 OA
ATOM     14  H3  ALE  1572      -2.923  41.522 230.501  1.00  0.00     0.210 HD
ENDBRANCH   7  13
ENDBRANCH   1   7
BRANCH   3  15
HETATM   15  O1  ALE  1572       0.569  45.763 230.203  1.00 20.00    -0.358 OA
ATOM     16  H1  ALE  1572       0.049  45.866 230.991  1.00  0.00     0.218 HD
ENDBRANCH   3  15
BRANCH   4  17
HETATM   17  O2  ALE  1572       2.977  44.930 229.015  1.00 20.00    -0.358 OA
ATOM     18  H2  ALE  1572       2.967  45.733 228.509  1.00  0.00     0.218 HD
ENDBRANCH   4  17
TORSDOF 6
ENDMDL
MODEL 7
REMARK VINA RESULT:      -5.4      1.429      2.211
REMARK  6 active torsions:
REMARK  status: ('A' for Active; 'I' for Inactive)
REMARK    1  A    between atoms: C1_1  and  C7_6 
REMARK    2  A    between atoms: C3_3  and  O1_8 
REMARK    3  A    between atoms: C4_4  and  O2_10 
REMARK    4  A    between atoms: C7_6  and  C8_14 
REMARK    5  A    between atoms: C7_6  and  O3_12 
REMARK    6  A    between atoms: C8_14  and  N1_15 
ROOT
HETATM    1  C1  ALE  1572       0.102  43.055 229.428  1.00 20.00    -0.025 A 
HETATM    2  C2  ALE  1572       1.017  42.319 228.678  1.00 20.00     0.049 A 
HETATM    3  C3  ALE  1572       2.360  42.691 228.658  1.00 20.00     0.099 A 
HETATM    4  C4  ALE  1572       2.790  43.802 229.394  1.00 20.00     0.098 A 
HETATM    5  C5  ALE  1572       1.875  44.534 230.143  1.00 20.00     0.040 A 
HETATM    6  C6  ALE  1572       0.537  44.161 230.157  1.00 20.00     0.012 A 
ENDROOT
BRANCH   1   7
HETATM    7  C7  ALE  1572      -1.386  42.664 229.467  1.00 20.00     0.176 C 
BRANCH   7   8
HETATM    8  C8  ALE  1572      -1.878  42.232 228.072  1.00 20.00     0.268 C 
BRANCH   8   9
HETATM    9  N1  ALE  1572      -1.733  43.335 227.113  1.00 20.00    -0.076 N 
HETATM   10  C9  ALE  1572      -2.123  42.889 225.765  1.00 20.00     0.267 C 
ATOM     11  H12 ALE  1572      -2.250  44.164 227.405  1.00  0.00     0.276 HD
ATOM     12  H11 ALE  1572      -0.794  43.733 227.127  1.00  0.00     0.276 HD
ENDBRANCH   8   9
ENDBRANCH   7   8
BRANCH   7  13
HETATM   13  O3  ALE  1572      -1.575  41.620 230.430  1.00 20.00    -0.389 OA
ATOM     14  H3  ALE  1572      -1.886  41.998 231.244  1.00  0.00     0.210 HD
ENDBRANCH   7  13
ENDBRANCH   1   7
BRANCH   3  15
HETATM   15  O1  ALE  1572       3.236  41.957 227.917  1.00 20.00    -0.358 OA
ATOM     16  H1  ALE  1572       3.701  42.380 227.205  1.00  0.00     0.218 HD
ENDBRANCH   3  15
BRANCH   4  17
HETATM   17  O2  ALE  1572       4.095  44.191 229.391  1.00 20.00    -0.358 OA
ATOM     18  H2  ALE  1572       4.353  45.049 229.079  1.00  0.00     0.218 HD
ENDBRANCH   4  17
TORSDOF 6
ENDMDL
MODEL 8
REMARK VINA RESULT:      -5.4      1.417      1.767
REMARK  6 active torsions:
REMARK  status: ('A' for Active; 'I' for Inactive)
REMARK    1  A    between atoms: C1_1  and  C7_6 
REMARK    2  A    between atoms: C3_3  and  O1_8 
REMARK    3  A    between atoms: C4_4  and  O2_10 
REMARK    4  A    between atoms: C7_6  and  C8_14 
REMARK    5  A    between atoms: C7_6  and  O3_12 
REMARK    6  A    between atoms: C8_14  and  N1_15 
ROOT
HETATM    1  C1  ALE  1572      -0.100  43.046 228.391  1.00 20.00    -0.025 A 
HETATM    2  C2  ALE  1572       0.159  43.734 229.575  1.00 20.00     0.049 A 
HETATM    3  C3  ALE  1572       1.469  43.853 230.038  1.00 20.00     0.099 A 
HETATM    4  C4  ALE  1572       2.522  43.287 229.311  1.00 20.00     0.098 A 
HETATM    5  C5  ALE  1572       2.262  42.604 228.128  1.00 20.00     0.040 A 
HETATM    6  C6  ALE  1572       0.954  42.484 227.673  1.00 20.00     0.012 A 
ENDROOT
BRANCH   1   7
HETATM    7  C7  ALE  1572      -1.537  42.900 227.859  1.00 20.00     0.176 C 
BRANCH   7   8
HETATM    8  C8  ALE  1572      -1.561  42.939 226.320  1.00 20.00     0.268 C 
BRANCH   8   9
HETATM    9  N1  ALE  1572      -2.829  43.507 225.842  1.00 20.00    -0.076 N 
HETATM   10  C9  ALE  1572      -3.631  42.465 225.177  1.00 20.00     0.267 C 
ATOM     11  H12 ALE  1572      -3.347  43.968 226.590  1.00  0.00     0.276 HD
ATOM     12  H11 ALE  1572      -2.682  44.317 225.240  1.00  0.00     0.276 HD
ENDBRANCH   8   9
ENDBRANCH   7   8
BRANCH   7  13
HETATM   13  O3  ALE  1572      -2.103  41.681 228.356  1.00 20.00    -0.389 OA
ATOM     14  H3  ALE  1572      -2.930  41.517 227.916  1.00  0.00     0.210 HD
ENDBRANCH   7  13
ENDBRANCH   1   7
BRANCH   3  15
HETATM   15  O1  ALE  1572       1.697  44.529 231.199  1.00 20.00    -0.358 OA
ATOM     16  H1  ALE  1572       2.580  44.820 231.393  1.00  0.00     0.218 HD
ENDBRANCH   3  15
BRANCH   4  17
HETATM   17  O2  ALE  1572       3.812  43.387 229.740  1.00 20.00    -0.358 OA
ATOM     18  H2  ALE  1572       4.418  44.000 229.342  1.00  0.00     0.218 HD
ENDBRANCH   4  17
TORSDOF 6
ENDMDL
MODEL 9
REMARK VINA RESULT:      -5.4      2.635      5.249
REMARK  6 active torsions:
REMARK  status: ('A' for Active; 'I' for Inactive)
REMARK    1  A    between atoms: C1_1  and  C7_6 
REMARK    2  A    between atoms: C3_3  and  O1_8 
REMARK    3  A    between atoms: C4_4  and  O2_10 
REMARK    4  A    between atoms: C7_6  and  C8_14 
REMARK    5  A    between atoms: C7_6  and  O3_12 
REMARK    6  A    between atoms: C8_14  and  N1_15 
ROOT
HETATM    1  C1  ALE  1572       0.306  42.550 228.066  1.00 20.00    -0.025 A 
HETATM    2  C2  ALE  1572      -0.832  42.785 227.298  1.00 20.00     0.049 A 
HETATM    3  C3  ALE  1572      -2.089  42.441 227.792  1.00 20.00     0.099 A 
HETATM    4  C4  ALE  1572      -2.207  41.865 229.063  1.00 20.00     0.098 A 
HETATM    5  C5  ALE  1572      -1.070  41.633 229.829  1.00 20.00     0.040 A 
HETATM    6  C6  ALE  1572       0.180  41.974 229.329  1.00 20.00     0.012 A 
ENDROOT
BRANCH   1   7
HETATM    7  C7  ALE  1572       1.705  42.920 227.542  1.00 20.00     0.176 C 
BRANCH   7   8
HETATM    8  C8  ALE  1572       2.246  44.174 228.255  1.00 20.00     0.268 C 
BRANCH   8   9
HETATM    9  N1  ALE  1572       1.587  45.382 227.738  1.00 20.00    -0.076 N 
HETATM   10  C9  ALE  1572       1.049  46.181 228.852  1.00 20.00     0.267 C 
ATOM     11  H12 ALE  1572       2.207  45.928 227.140  1.00  0.00     0.276 HD
ATOM     12  H11 ALE  1572       0.871  45.159 227.047  1.00  0.00     0.276 HD
ENDBRANCH   8   9
ENDBRANCH   7   8
BRANCH   7  13
HETATM   13  O3  ALE  1572       2.586  41.804 227.716  1.00 20.00    -0.389 OA
ATOM     14  H3  ALE  1572       3.387  42.099 228.133  1.00  0.00     0.210 HD
ENDBRANCH   7  13
ENDBRANCH   1   7
BRANCH   3  15
HETATM   15  O1  ALE  1572      -3.187  42.679 227.022  1.00 20.00    -0.358 OA
ATOM     16  H1  ALE  1572      -3.463  43.576 226.882  1.00  0.00     0.218 HD
ENDBRANCH   3  15
BRANCH   4  17
HETATM   17  O2  ALE  1572      -3.423  41.517 229.571  1.00 20.00    -0.358 OA
ATOM     18  H2  ALE  1572      -3.960  42.145 230.037  1.00  0.00     0.218 HD
ENDBRANCH   4  17
TORSDOF 6
ENDMDL
