MODEL 1
REMARK VINA RESULT:      -7.6      0.000      0.000
REMARK  1 active torsions:
REMARK  status: ('A' for Active; 'I' for Inactive)
REMARK    1  A    between atoms: C1_3  and  C3_4 
REMARK       I    between atoms: C3_4  and  N5_5 
REMARK       I    between atoms: C6_7  and  N5_5 
REMARK       I    between atoms: C6_7  and  N7_8 
ROOT
HETATM    1  N1  AMR  1607      -0.558  42.647 229.317  1.00 20.00    -0.337 N 
ATOM      2  H1  AMR  1607      -0.464  42.193 230.226  1.00  0.00     0.167 HD
HETATM    3  C1  AMR  1607       0.300  43.618 228.979  1.00 20.00     0.144 A 
HETATM    4  C2  AMR  1607       0.181  44.251 227.733  1.00 20.00     0.150 A 
HETATM    5  N4  AMR  1607       1.055  45.279 227.326  1.00 20.00    -0.080 NA
HETATM    6  N3  AMR  1607      -0.801  43.870 226.884  1.00 20.00    -0.329 N 
ATOM      7  H3  AMR  1607      -0.889  44.328 225.976  1.00  0.00     0.168 HD
HETATM    8  C4  AMR  1607      -1.671  42.884 227.228  1.00 20.00     0.156 A 
HETATM    9  N2  AMR  1607      -2.685  42.529 226.293  1.00 20.00    -0.079 NA
HETATM   10  C5  AMR  1607      -1.542  42.258 228.485  1.00 20.00     0.145 A 
HETATM   11 CL1  AMR  1607      -2.608  40.989 229.019  1.00 20.00    -0.061 Cl
ENDROOT
BRANCH   3  12
HETATM   12  C3  AMR  1607       1.412  43.995 230.035  1.00 20.00     0.289 C 
HETATM   13  N5  AMR  1607       2.737  43.720 229.681  1.00 20.00    -0.155 N 
HETATM   14  C6  AMR  1607       3.752  43.852 230.490  1.00 20.00     0.672 C 
ATOM     15  H5  AMR  1607       2.921  43.395 228.732  1.00  0.00     0.187 HD
HETATM   16  N7  AMR  1607       3.617  44.251 231.733  1.00 20.00    -0.235 N 
HETATM   17  N6  AMR  1607       4.940  43.571 230.038  1.00 20.00    -0.235 N 
ATOM     18  H72 AMR  1607       2.687  44.471 232.089  1.00  0.00     0.174 HD
ATOM     19  H71 AMR  1607       4.411  44.355 232.366  1.00  0.00     0.174 HD
ATOM     20  H62 AMR  1607       5.733  43.675 230.670  1.00  0.00     0.174 HD
ATOM     21  H61 AMR  1607       5.045  43.261 229.072  1.00  0.00     0.174 HD
HETATM   22  O1  AMR  1607       1.094  44.496 231.120  1.00 20.00    -0.265 OA
ENDBRANCH   3  12
TORSDOF 1
ENDMDL
MODEL 2
REMARK VINA RESULT:      -6.5      2.103      2.842
REMARK  1 active torsions:
REMARK  status: ('A' for Active; 'I' for Inactive)
REMARK    1  A    between atoms: C1_3  and  C3_4 
REMARK       I    between atoms: C3_4  and  N5_5 
REMARK       I    between atoms: C6_7  and  N5_5 
REMARK       I    between atoms: C6_7  and  N7_8 
ROOT
HETATM    1  N1  AMR  1607      -0.766  42.955 226.745  1.00 20.00    -0.337 N 
ATOM      2  H1  AMR  1607      -0.058  43.304 226.098  1.00  0.00     0.167 HD
HETATM    3  C1  AMR  1607      -0.438  42.759 228.029  1.00 20.00     0.144 A 
HETATM    4  C2  AMR  1607      -1.401  42.279 228.928  1.00 20.00     0.150 A 
HETATM    5  N4  AMR  1607      -1.112  42.053 230.289  1.00 20.00    -0.080 NA
HETATM    6  N3  AMR  1607      -2.654  42.022 228.488  1.00 20.00    -0.329 N 
ATOM      7  H3  AMR  1607      -3.357  41.674 229.141  1.00  0.00     0.168 HD
HETATM    8  C4  AMR  1607      -2.986  42.222 227.185  1.00 20.00     0.156 A 
HETATM    9  N2  AMR  1607      -4.319  41.931 226.781  1.00 20.00    -0.079 NA
HETATM   10  C5  AMR  1607      -2.007  42.703 226.290  1.00 20.00     0.145 A 
HETATM   11 CL1  AMR  1607      -2.332  42.988 224.604  1.00 20.00    -0.061 Cl
ENDROOT
BRANCH   3  12
HETATM   12  C3  AMR  1607       1.049  43.085 228.450  1.00 20.00     0.289 C 
HETATM   13  N5  AMR  1607       1.251  43.524 229.763  1.00 20.00    -0.155 N 
HETATM   14  C6  AMR  1607       2.393  43.955 230.222  1.00 20.00     0.672 C 
ATOM     15  H5  AMR  1607       0.455  43.507 230.400  1.00  0.00     0.187 HD
HETATM   16  N7  AMR  1607       3.472  44.025 229.477  1.00 20.00    -0.235 N 
HETATM   17  N6  AMR  1607       2.454  44.328 231.467  1.00 20.00    -0.235 N 
ATOM     18  H72 AMR  1607       3.425  43.733 228.501  1.00  0.00     0.174 HD
ATOM     19  H71 AMR  1607       4.366  44.362 229.836  1.00  0.00     0.174 HD
ATOM     20  H62 AMR  1607       3.348  44.664 231.826  1.00  0.00     0.174 HD
ATOM     21  H61 AMR  1607       1.616  44.273 232.046  1.00  0.00     0.174 HD
HETATM   22  O1  AMR  1607       1.968  42.962 227.632  1.00 20.00    -0.265 OA
ENDBRANCH   3  12
TORSDOF 1
ENDMDL
MODEL 3
REMARK VINA RESULT:      -6.4      2.692      5.852
REMARK  1 active torsions:
REMARK  status: ('A' for Active; 'I' for Inactive)
REMARK    1  A    between atoms: C1_3  and  C3_4 
REMARK       I    between atoms: C3_4  and  N5_5 
REMARK       I    between atoms: C6_7  and  N5_5 
REMARK       I    between atoms: C6_7  and  N7_8 
ROOT
HETATM    1  N1  AMR  1607       0.155  44.654 228.150  1.00 20.00    -0.337 N 
ATOM      2  H1  AMR  1607      -0.607  45.278 227.882  1.00  0.00     0.167 HD
HETATM    3  C1  AMR  1607       0.025  43.337 227.948  1.00 20.00     0.144 A 
HETATM    4  C2  AMR  1607       1.065  42.470 228.312  1.00 20.00     0.150 A 
HETATM    5  N4  AMR  1607       0.982  41.076 228.125  1.00 20.00    -0.080 NA
HETATM    6  N3  AMR  1607       2.193  42.976 228.861  1.00 20.00    -0.329 N 
ATOM      7  H3  AMR  1607       2.953  42.348 229.125  1.00  0.00     0.168 HD
HETATM    8  C4  AMR  1607       2.325  44.314 229.064  1.00 20.00     0.156 A 
HETATM    9  N2  AMR  1607       3.534  44.787 229.648  1.00 20.00    -0.079 NA
HETATM   10  C5  AMR  1607       1.269  45.175 228.697  1.00 20.00     0.145 A 
HETATM   11 CL1  AMR  1607       1.341  46.900 228.919  1.00 20.00    -0.061 Cl
ENDROOT
BRANCH   3  12
HETATM   12  C3  AMR  1607      -1.328  42.838 227.303  1.00 20.00     0.289 C 
HETATM   13  N5  AMR  1607      -1.463  42.997 225.920  1.00 20.00    -0.155 N 
HETATM   14  C6  AMR  1607      -2.562  42.757 225.261  1.00 20.00     0.672 C 
ATOM     15  H5  AMR  1607      -0.651  43.322 225.395  1.00  0.00     0.187 HD
HETATM   16  N7  AMR  1607      -3.663  42.346 225.848  1.00 20.00    -0.235 N 
HETATM   17  N6  AMR  1607      -2.558  42.935 223.972  1.00 20.00    -0.235 N 
ATOM     18  H72 AMR  1607      -3.667  42.206 226.858  1.00  0.00     0.174 HD
ATOM     19  H71 AMR  1607      -4.523  42.158 225.332  1.00  0.00     0.174 HD
ATOM     20  H62 AMR  1607      -3.418  42.747 223.456  1.00  0.00     0.174 HD
ATOM     21  H61 AMR  1607      -1.703  43.254 223.515  1.00  0.00     0.174 HD
HETATM   22  O1  AMR  1607      -2.212  42.347 228.015  1.00 20.00    -0.265 OA
ENDBRANCH   3  12
TORSDOF 1
ENDMDL
MODEL 4
REMARK VINA RESULT:      -6.3      2.200      3.306
REMARK  1 active torsions:
REMARK  status: ('A' for Active; 'I' for Inactive)
REMARK    1  A    between atoms: C1_3  and  C3_4 
REMARK       I    between atoms: C3_4  and  N5_5 
REMARK       I    between atoms: C6_7  and  N5_5 
REMARK       I    between atoms: C6_7  and  N7_8 
ROOT
HETATM    1  N1  AMR  1607      -1.170  41.509 230.249  1.00 20.00    -0.337 N 
ATOM      2  H1  AMR  1607      -0.477  41.637 230.987  1.00  0.00     0.167 HD
HETATM    3  C1  AMR  1607      -1.235  42.399 229.250  1.00 20.00     0.144 A 
HETATM    4  C2  AMR  1607      -2.184  42.234 228.231  1.00 20.00     0.150 A 
HETATM    5  N4  AMR  1607      -2.298  43.140 227.157  1.00 20.00    -0.080 NA
HETATM    6  N3  AMR  1607      -3.022  41.173 228.266  1.00 20.00    -0.329 N 
ATOM      7  H3  AMR  1607      -3.712  41.049 227.524  1.00  0.00     0.168 HD
HETATM    8  C4  AMR  1607      -2.954  40.269 229.279  1.00 20.00     0.156 A 
HETATM    9  N2  AMR  1607      -3.865  39.175 229.264  1.00 20.00    -0.079 NA
HETATM   10  C5  AMR  1607      -1.998  40.448 230.301  1.00 20.00     0.145 A 
HETATM   11 CL1  AMR  1607      -1.834  39.350 231.641  1.00 20.00    -0.061 Cl
ENDROOT
BRANCH   3  12
HETATM   12  C3  AMR  1607      -0.217  43.605 229.294  1.00 20.00     0.289 C 
HETATM   13  N5  AMR  1607       0.252  44.080 228.065  1.00 20.00    -0.155 N 
HETATM   14  C6  AMR  1607       1.188  44.979 227.938  1.00 20.00     0.672 C 
ATOM     15  H5  AMR  1607      -0.165  43.700 227.215  1.00  0.00     0.187 HD
HETATM   16  N7  AMR  1607       1.794  45.520 228.970  1.00 20.00    -0.235 N 
HETATM   17  N6  AMR  1607       1.531  45.345 226.737  1.00 20.00    -0.235 N 
ATOM     18  H72 AMR  1607       1.526  45.233 229.911  1.00  0.00     0.174 HD
ATOM     19  H71 AMR  1607       2.526  46.223 228.870  1.00  0.00     0.174 HD
ATOM     20  H62 AMR  1607       2.264  46.048 226.637  1.00  0.00     0.174 HD
ATOM     21  H61 AMR  1607       1.061  44.925 225.934  1.00  0.00     0.174 HD
HETATM   22  O1  AMR  1607       0.141  44.077 230.380  1.00 20.00    -0.265 OA
ENDBRANCH   3  12
TORSDOF 1
ENDMDL
MODEL 5
REMARK VINA RESULT:      -6.2      2.648      3.686
REMARK  1 active torsions:
REMARK  status: ('A' for Active; 'I' for Inactive)
REMARK    1  A    between atoms: C1_3  and  C3_4 
REMARK       I    between atoms: C3_4  and  N5_5 
REMARK       I    between atoms: C6_7  and  N5_5 
REMARK       I    between atoms: C6_7  and  N7_8 
ROOT
HETATM    1  N1  AMR  1607      -2.640  42.369 226.935  1.00 20.00    -0.337 N 
ATOM      2  H1  AMR  1607      -2.435  42.814 226.040  1.00  0.00     0.167 HD
HETATM    3  C1  AMR  1607      -1.737  42.435 227.922  1.00 20.00     0.144 A 
HETATM    4  C2  AMR  1607      -2.006  41.827 229.156  1.00 20.00     0.150 A 
HETATM    5  N4  AMR  1607      -1.091  41.864 230.227  1.00 20.00    -0.080 NA
HETATM    6  N3  AMR  1607      -3.180  41.180 229.337  1.00 20.00    -0.329 N 
ATOM      7  H3  AMR  1607      -3.380  40.738 230.235  1.00  0.00     0.168 HD
HETATM    8  C4  AMR  1607      -4.097  41.113 228.336  1.00 20.00     0.156 A 
HETATM    9  N2  AMR  1607      -5.313  40.417 228.586  1.00 20.00    -0.079 NA
HETATM   10  C5  AMR  1607      -3.812  41.727 227.098  1.00 20.00     0.145 A 
HETATM   11 CL1  AMR  1607      -4.919  41.695 225.755  1.00 20.00    -0.061 Cl
ENDROOT
BRANCH   3  12
HETATM   12  C3  AMR  1607      -0.395  43.210 227.616  1.00 20.00     0.289 C 
HETATM   13  N5  AMR  1607       0.789  42.467 227.674  1.00 20.00    -0.155 N 
HETATM   14  C6  AMR  1607       1.982  42.986 227.575  1.00 20.00     0.672 C 
ATOM     15  H5  AMR  1607       0.715  41.458 227.802  1.00  0.00     0.187 HD
HETATM   16  N7  AMR  1607       2.183  44.274 227.420  1.00 20.00    -0.235 N 
HETATM   17  N6  AMR  1607       3.007  42.186 227.636  1.00 20.00    -0.235 N 
ATOM     18  H72 AMR  1607       1.380  44.901 227.372  1.00  0.00     0.174 HD
ATOM     19  H71 AMR  1607       3.115  44.679 227.342  1.00  0.00     0.174 HD
ATOM     20  H62 AMR  1607       3.940  42.591 227.558  1.00  0.00     0.174 HD
ATOM     21  H61 AMR  1607       2.852  41.185 227.756  1.00  0.00     0.174 HD
HETATM   22  O1  AMR  1607      -0.420  44.419 227.354  1.00 20.00    -0.265 OA
ENDBRANCH   3  12
TORSDOF 1
ENDMDL
MODEL 6
REMARK VINA RESULT:      -6.1      2.865      5.851
REMARK  1 active torsions:
REMARK  status: ('A' for Active; 'I' for Inactive)
REMARK    1  A    between atoms: C1_3  and  C3_4 
REMARK       I    between atoms: C3_4  and  N5_5 
REMARK       I    between atoms: C6_7  and  N5_5 
REMARK       I    between atoms: C6_7  and  N7_8 
ROOT
HETATM    1  N1  AMR  1607       0.101  44.722 228.078  1.00 20.00    -0.337 N 
ATOM      2  H1  AMR  1607      -0.634  45.370 227.792  1.00  0.00     0.167 HD
HETATM    3  C1  AMR  1607      -0.071  43.408 227.883  1.00 20.00     0.144 A 
HETATM    4  C2  AMR  1607       0.931  42.509 228.274  1.00 20.00     0.150 A 
HETATM    5  N4  AMR  1607       0.803  41.117 228.094  1.00 20.00    -0.080 NA
HETATM    6  N3  AMR  1607       2.065  42.980 228.842  1.00 20.00    -0.329 N 
ATOM      7  H3  AMR  1607       2.797  42.328 229.125  1.00  0.00     0.168 HD
HETATM    8  C4  AMR  1607       2.239  44.314 229.039  1.00 20.00     0.156 A 
HETATM    9  N2  AMR  1607       3.452  44.749 229.643  1.00 20.00    -0.079 NA
HETATM   10  C5  AMR  1607       1.222  45.208 228.644  1.00 20.00     0.145 A 
HETATM   11 CL1  AMR  1607       1.349  46.931 228.856  1.00 20.00    -0.061 Cl
ENDROOT
BRANCH   3  12
HETATM   12  C3  AMR  1607      -1.427  42.952 227.215  1.00 20.00     0.289 C 
HETATM   13  N5  AMR  1607      -2.316  42.232 228.020  1.00 20.00    -0.155 N 
HETATM   14  C6  AMR  1607      -3.412  41.677 227.582  1.00 20.00     0.672 C 
ATOM     15  H5  AMR  1607      -2.092  42.135 229.010  1.00  0.00     0.187 HD
HETATM   16  N7  AMR  1607      -3.781  41.737 226.324  1.00 20.00    -0.235 N 
HETATM   17  N6  AMR  1607      -4.162  41.040 228.435  1.00 20.00    -0.235 N 
ATOM     18  H72 AMR  1607      -3.194  42.236 225.655  1.00  0.00     0.174 HD
ATOM     19  H71 AMR  1607      -4.639  41.303 225.982  1.00  0.00     0.174 HD
ATOM     20  H62 AMR  1607      -5.019  40.606 228.093  1.00  0.00     0.174 HD
ATOM     21  H61 AMR  1607      -3.875  40.993 229.413  1.00  0.00     0.174 HD
HETATM   22  O1  AMR  1607      -1.658  43.222 226.030  1.00 20.00    -0.265 OA
ENDBRANCH   3  12
TORSDOF 1
ENDMDL
MODEL 7
REMARK VINA RESULT:      -5.6      7.398      9.398
REMARK  1 active torsions:
REMARK  status: ('A' for Active; 'I' for Inactive)
REMARK    1  A    between atoms: C1_3  and  C3_4 
REMARK       I    between atoms: C3_4  and  N5_5 
REMARK       I    between atoms: C6_7  and  N5_5 
REMARK       I    between atoms: C6_7  and  N7_8 
ROOT
HETATM    1  N1  AMR  1607      -0.165  38.826 236.262  1.00 20.00    -0.337 N 
ATOM      2  H1  AMR  1607      -1.095  39.126 236.558  1.00  0.00     0.167 HD
HETATM    3  C1  AMR  1607      -0.004  38.306 235.039  1.00 20.00     0.144 A 
HETATM    4  C2  AMR  1607       1.268  37.890 234.621  1.00 20.00     0.150 A 
HETATM    5  N4  AMR  1607       1.496  37.334 233.346  1.00 20.00    -0.080 NA
HETATM    6  N3  AMR  1607       2.321  38.023 235.460  1.00 20.00    -0.329 N 
ATOM      7  H3  AMR  1607       3.249  37.723 235.158  1.00  0.00     0.168 HD
HETATM    8  C4  AMR  1607       2.157  38.552 236.701  1.00 20.00     0.156 A 
HETATM    9  N2  AMR  1607       3.302  38.663 237.539  1.00 20.00    -0.079 NA
HETATM   10  C5  AMR  1607       0.871  38.963 237.110  1.00 20.00     0.145 A 
HETATM   11 CL1  AMR  1607       0.557  39.649 238.679  1.00 20.00    -0.061 Cl
ENDROOT
BRANCH   3  12
HETATM   12  C3  AMR  1607      -1.291  38.189 234.131  1.00 20.00     0.289 C 
HETATM   13  N5  AMR  1607      -1.328  38.989 232.984  1.00 20.00    -0.155 N 
HETATM   14  C6  AMR  1607      -2.369  39.103 232.206  1.00 20.00     0.672 C 
ATOM     15  H5  AMR  1607      -0.489  39.516 232.741  1.00  0.00     0.187 HD
HETATM   16  N7  AMR  1607      -3.498  38.476 232.440  1.00 20.00    -0.235 N 
HETATM   17  N6  AMR  1607      -2.275  39.874 231.162  1.00 20.00    -0.235 N 
ATOM     18  H72 AMR  1607      -3.572  37.871 233.258  1.00  0.00     0.174 HD
ATOM     19  H71 AMR  1607      -4.312  38.565 231.831  1.00  0.00     0.174 HD
ATOM     20  H62 AMR  1607      -3.089  39.964 230.553  1.00  0.00     0.174 HD
ATOM     21  H61 AMR  1607      -1.397  40.363 230.980  1.00  0.00     0.174 HD
HETATM   22  O1  AMR  1607      -2.212  37.429 234.452  1.00 20.00    -0.265 OA
ENDBRANCH   3  12
TORSDOF 1
ENDMDL
MODEL 8
REMARK VINA RESULT:      -5.5      2.984      5.894
REMARK  1 active torsions:
REMARK  status: ('A' for Active; 'I' for Inactive)
REMARK    1  A    between atoms: C1_3  and  C3_4 
REMARK       I    between atoms: C3_4  and  N5_5 
REMARK       I    between atoms: C6_7  and  N5_5 
REMARK       I    between atoms: C6_7  and  N7_8 
ROOT
HETATM    1  N1  AMR  1607      -0.765  42.902 229.301  1.00 20.00    -0.337 N 
ATOM      2  H1  AMR  1607      -0.883  42.459 230.213  1.00  0.00     0.167 HD
HETATM    3  C1  AMR  1607      -1.522  42.496 228.273  1.00 20.00     0.144 A 
HETATM    4  C2  AMR  1607      -1.368  43.095 227.015  1.00 20.00     0.150 A 
HETATM    5  N4  AMR  1607      -2.136  42.707 225.899  1.00 20.00    -0.080 NA
HETATM    6  N3  AMR  1607      -0.456  44.081 226.854  1.00 20.00    -0.329 N 
ATOM      7  H3  AMR  1607      -0.343  44.521 225.940  1.00  0.00     0.168 HD
HETATM    8  C4  AMR  1607       0.311  44.493 227.898  1.00 20.00     0.156 A 
HETATM    9  N2  AMR  1607       1.255  45.533 227.666  1.00 20.00    -0.079 NA
HETATM   10  C5  AMR  1607       0.149  43.880 229.158  1.00 20.00     0.145 A 
HETATM   11 CL1  AMR  1607       1.085  44.334 230.554  1.00 20.00    -0.061 Cl
ENDROOT
BRANCH   3  12
HETATM   12  C3  AMR  1607      -2.557  41.338 228.557  1.00 20.00     0.289 C 
HETATM   13  N5  AMR  1607      -3.815  41.455 227.955  1.00 20.00    -0.155 N 
HETATM   14  C6  AMR  1607      -4.816  40.654 228.192  1.00 20.00     0.672 C 
ATOM     15  H5  AMR  1607      -3.957  42.215 227.289  1.00  0.00     0.187 HD
HETATM   16  N7  AMR  1607      -4.736  39.655 229.041  1.00 20.00    -0.235 N 
HETATM   17  N6  AMR  1607      -5.935  40.864 227.561  1.00 20.00    -0.235 N 
ATOM     18  H72 AMR  1607      -3.860  39.491 229.536  1.00  0.00     0.174 HD
ATOM     19  H71 AMR  1607      -5.520  39.029 229.226  1.00  0.00     0.174 HD
ATOM     20  H62 AMR  1607      -6.718  40.237 227.747  1.00  0.00     0.174 HD
ATOM     21  H61 AMR  1607      -5.997  41.640 226.902  1.00  0.00     0.174 HD
HETATM   22  O1  AMR  1607      -2.247  40.392 229.291  1.00 20.00    -0.265 OA
ENDBRANCH   3  12
TORSDOF 1
ENDMDL
MODEL 9
REMARK VINA RESULT:      -5.3      3.046      6.637
REMARK  1 active torsions:
REMARK  status: ('A' for Active; 'I' for Inactive)
REMARK    1  A    between atoms: C1_3  and  C3_4 
REMARK       I    between atoms: C3_4  and  N5_5 
REMARK       I    between atoms: C6_7  and  N5_5 
REMARK       I    between atoms: C6_7  and  N7_8 
ROOT
HETATM    1  N1  AMR  1607      -0.752  43.848 227.182  1.00 20.00    -0.337 N 
ATOM      2  H1  AMR  1607      -0.747  44.321 226.278  1.00  0.00     0.167 HD
HETATM    3  C1  AMR  1607      -1.699  42.935 227.437  1.00 20.00     0.144 A 
HETATM    4  C2  AMR  1607      -1.717  42.278 228.676  1.00 20.00     0.150 A 
HETATM    5  N4  AMR  1607      -2.690  41.311 228.999  1.00 20.00    -0.080 NA
HETATM    6  N3  AMR  1607      -0.774  42.573 229.600  1.00 20.00    -0.329 N 
ATOM      7  H3  AMR  1607      -0.784  42.095 230.502  1.00  0.00     0.168 HD
HETATM    8  C4  AMR  1607       0.187  43.498 229.339  1.00 20.00     0.156 A 
HETATM    9  N2  AMR  1607       1.151  43.767 230.352  1.00 20.00    -0.079 NA
HETATM   10  C5  AMR  1607       0.192  44.154 228.090  1.00 20.00     0.145 A 
HETATM   11 CL1  AMR  1607       1.377  45.356 227.663  1.00 20.00    -0.061 Cl
ENDROOT
BRANCH   3  12
HETATM   12  C3  AMR  1607      -2.758  42.659 226.299  1.00 20.00     0.289 C 
HETATM   13  N5  AMR  1607      -4.106  42.681 226.673  1.00 20.00    -0.155 N 
HETATM   14  C6  AMR  1607      -5.089  42.348 225.883  1.00 20.00     0.672 C 
ATOM     15  H5  AMR  1607      -4.334  42.976 227.622  1.00  0.00     0.187 HD
HETATM   16  N7  AMR  1607      -4.897  41.945 224.648  1.00 20.00    -0.235 N 
HETATM   17  N6  AMR  1607      -6.303  42.418 226.347  1.00 20.00    -0.235 N 
ATOM     18  H72 AMR  1607      -3.946  41.889 224.283  1.00  0.00     0.174 HD
ATOM     19  H71 AMR  1607      -5.666  41.684 224.030  1.00  0.00     0.174 HD
ATOM     20  H62 AMR  1607      -7.071  42.158 225.729  1.00  0.00     0.174 HD
ATOM     21  H61 AMR  1607      -6.452  42.731 227.307  1.00  0.00     0.174 HD
HETATM   22  O1  AMR  1607      -2.383  42.425 225.144  1.00 20.00    -0.265 OA
ENDBRANCH   3  12
TORSDOF 1
ENDMDL
