MODEL 1
REMARK VINA RESULT:      -6.3      0.000      0.000
REMARK  5 active torsions:
REMARK  status: ('A' for Active; 'I' for Inactive)
REMARK    1  A    between atoms: CAJ_4  and  CAM_2 
REMARK    2  A    between atoms: CAH_5  and  CAJ_4 
REMARK    3  A    between atoms: CAH_5  and  CAI_6 
REMARK    4  A    between atoms: CAI_6  and  CAK_7 
REMARK    5  A    between atoms: CAK_7  and  N1_8 
ROOT
HETATM    1  N1  PNX  6259      -1.610  42.268 228.299  1.00 20.00    -0.264 N 
HETATM    2  C6  PNX  6259      -2.413  42.610 227.202  1.00 20.00     0.282 A 
HETATM    3  O6  PNX  6259      -1.969  43.378 226.349  1.00 20.00    -0.265 OA
HETATM    4  C5  PNX  6259      -3.688  42.070 227.063  1.00 20.00     0.149 A 
HETATM    5  N7  PNX  6259      -4.652  42.176 226.151  1.00 20.00    -0.340 N 
HETATM    6  CAB PNX  6259      -4.630  43.049 224.955  1.00 20.00     0.157 C 
HETATM    7  C8  PNX  6259      -5.681  41.402 226.484  1.00 20.00     0.184 A 
HETATM    8  N9  PNX  6259      -5.385  40.793 227.630  1.00 20.00    -0.336 N 
ATOM      9  H9  PNX  6259      -5.988  40.139 228.128  1.00  0.00     0.168 HD
HETATM   10  C4  PNX  6259      -4.172  41.179 228.017  1.00 20.00     0.145 A 
HETATM   11  N3  PNX  6259      -3.382  40.830 229.120  1.00 20.00    -0.287 N 
HETATM   12  CAC PNX  6259      -3.918  39.909 230.148  1.00 20.00     0.163 C 
HETATM   13  C2  PNX  6259      -2.096  41.370 229.260  1.00 20.00     0.332 A 
HETATM   14  O2  PNX  6259      -1.384  41.032 230.205  1.00 20.00    -0.246 OA
ENDROOT
BRANCH   1  15
HETATM   15  CAK PNX  6259      -0.285  42.904 228.485  1.00 20.00     0.137 C 
BRANCH  15  16
HETATM   16  CAI PNX  6259       0.876  41.972 228.121  1.00 20.00     0.021 C 
BRANCH  16  17
HETATM   17  CAH PNX  6259       2.046  42.798 227.582  1.00 20.00     0.009 C 
BRANCH  17  18
HETATM   18  CAJ PNX  6259       3.242  42.860 228.536  1.00 20.00     0.078 C 
BRANCH  18  19
HETATM   19  CAM PNX  6259       3.220  44.080 229.463  1.00 20.00     0.123 C 
HETATM   20  CAA PNX  6259       4.046  44.041 230.749  1.00 20.00     0.091 C 
HETATM   21  OAD PNX  6259       2.536  45.069 229.202  1.00 20.00    -0.298 OA
ENDBRANCH  18  19
ENDBRANCH  17  18
ENDBRANCH  16  17
ENDBRANCH  15  16
ENDBRANCH   1  15
TORSDOF 5
ENDMDL
MODEL 2
REMARK VINA RESULT:      -6.3      0.824      2.845
REMARK  5 active torsions:
REMARK  status: ('A' for Active; 'I' for Inactive)
REMARK    1  A    between atoms: CAJ_4  and  CAM_2 
REMARK    2  A    between atoms: CAH_5  and  CAJ_4 
REMARK    3  A    between atoms: CAH_5  and  CAI_6 
REMARK    4  A    between atoms: CAI_6  and  CAK_7 
REMARK    5  A    between atoms: CAK_7  and  N1_8 
ROOT
HETATM    1  N1  PNX  6259      -1.468  42.160 228.453  1.00 20.00    -0.264 N 
HETATM    2  C6  PNX  6259      -2.119  41.118 229.128  1.00 20.00     0.282 A 
HETATM    3  O6  PNX  6259      -1.592  40.627 230.127  1.00 20.00    -0.265 OA
HETATM    4  C5  PNX  6259      -3.359  40.659 228.693  1.00 20.00     0.149 A 
HETATM    5  N7  PNX  6259      -4.215  39.734 229.122  1.00 20.00    -0.340 N 
HETATM    6  CAB PNX  6259      -4.003  38.810 230.260  1.00 20.00     0.157 C 
HETATM    7  C8  PNX  6259      -5.298  39.722 228.350  1.00 20.00     0.184 A 
HETATM    8  N9  PNX  6259      -5.140  40.645 227.404  1.00 20.00    -0.336 N 
ATOM      9  H9  PNX  6259      -5.810  40.861 226.666  1.00  0.00     0.168 HD
HETATM   10  C4  PNX  6259      -3.962  41.239 227.581  1.00 20.00     0.145 A 
HETATM   11  N3  PNX  6259      -3.322  42.279 226.893  1.00 20.00    -0.287 N 
HETATM   12  CAC PNX  6259      -3.954  42.867 225.691  1.00 20.00     0.163 C 
HETATM   13  C2  PNX  6259      -2.075  42.745 227.332  1.00 20.00     0.332 A 
HETATM   14  O2  PNX  6259      -1.530  43.686 226.757  1.00 20.00    -0.246 OA
ENDROOT
BRANCH   1  15
HETATM   15  CAK PNX  6259      -0.114  42.592 228.872  1.00 20.00     0.137 C 
BRANCH  15  16
HETATM   16  CAI PNX  6259       1.001  41.806 228.174  1.00 20.00     0.021 C 
BRANCH  16  17
HETATM   17  CAH PNX  6259       2.103  42.768 227.725  1.00 20.00     0.009 C 
BRANCH  17  18
HETATM   18  CAJ PNX  6259       3.301  42.814 228.676  1.00 20.00     0.078 C 
BRANCH  18  19
HETATM   19  CAM PNX  6259       3.361  44.089 229.522  1.00 20.00     0.123 C 
HETATM   20  CAA PNX  6259       4.388  44.176 230.652  1.00 20.00     0.091 C 
HETATM   21  OAD PNX  6259       2.587  45.025 229.324  1.00 20.00    -0.298 OA
ENDBRANCH  18  19
ENDBRANCH  17  18
ENDBRANCH  16  17
ENDBRANCH  15  16
ENDBRANCH   1  15
TORSDOF 5
ENDMDL
MODEL 3
REMARK VINA RESULT:      -5.7      2.777      5.528
REMARK  5 active torsions:
REMARK  status: ('A' for Active; 'I' for Inactive)
REMARK    1  A    between atoms: CAJ_4  and  CAM_2 
REMARK    2  A    between atoms: CAH_5  and  CAJ_4 
REMARK    3  A    between atoms: CAH_5  and  CAI_6 
REMARK    4  A    between atoms: CAI_6  and  CAK_7 
REMARK    5  A    between atoms: CAK_7  and  N1_8 
ROOT
HETATM    1  N1  PNX  6259      -2.683  41.037 229.041  1.00 20.00    -0.264 N 
HETATM    2  C6  PNX  6259      -1.518  41.705 229.444  1.00 20.00     0.282 A 
HETATM    3  O6  PNX  6259      -0.985  41.394 230.509  1.00 20.00    -0.265 OA
HETATM    4  C5  PNX  6259      -0.954  42.691 228.640  1.00 20.00     0.149 A 
HETATM    5  N7  PNX  6259       0.127  43.463 228.729  1.00 20.00    -0.340 N 
HETATM    6  CAB PNX  6259       1.068  43.518 229.871  1.00 20.00     0.157 C 
HETATM    7  C8  PNX  6259       0.232  44.226 227.645  1.00 20.00     0.184 A 
HETATM    8  N9  PNX  6259      -0.796  43.952 226.846  1.00 20.00    -0.336 N 
ATOM      9  H9  PNX  6259      -0.979  44.387 225.941  1.00  0.00     0.168 HD
HETATM   10  C4  PNX  6259      -1.547  43.017 227.423  1.00 20.00     0.145 A 
HETATM   11  N3  PNX  6259      -2.713  42.360 227.009  1.00 20.00    -0.287 N 
HETATM   12  CAC PNX  6259      -3.357  42.737 225.730  1.00 20.00     0.163 C 
HETATM   13  C2  PNX  6259      -3.281  41.364 227.816  1.00 20.00     0.332 A 
HETATM   14  O2  PNX  6259      -4.280  40.757 227.435  1.00 20.00    -0.246 OA
ENDROOT
BRANCH   1  15
HETATM   15  CAK PNX  6259      -3.324  40.044 229.936  1.00 20.00     0.137 C 
BRANCH  15  16
HETATM   16  CAI PNX  6259      -3.011  38.599 229.535  1.00 20.00     0.021 C 
BRANCH  16  17
HETATM   17  CAH PNX  6259      -1.874  38.061 230.406  1.00 20.00     0.009 C 
BRANCH  17  18
HETATM   18  CAJ PNX  6259      -0.522  38.016 229.689  1.00 20.00     0.078 C 
BRANCH  18  19
HETATM   19  CAM PNX  6259       0.408  36.916 230.209  1.00 20.00     0.123 C 
HETATM   20  CAA PNX  6259       0.634  36.795 231.716  1.00 20.00     0.091 C 
HETATM   21  OAD PNX  6259       0.989  36.153 229.438  1.00 20.00    -0.298 OA
ENDBRANCH  18  19
ENDBRANCH  17  18
ENDBRANCH  16  17
ENDBRANCH  15  16
ENDBRANCH   1  15
TORSDOF 5
ENDMDL
MODEL 4
REMARK VINA RESULT:      -5.5     10.755     12.859
REMARK  5 active torsions:
REMARK  status: ('A' for Active; 'I' for Inactive)
REMARK    1  A    between atoms: CAJ_4  and  CAM_2 
REMARK    2  A    between atoms: CAH_5  and  CAJ_4 
REMARK    3  A    between atoms: CAH_5  and  CAI_6 
REMARK    4  A    between atoms: CAI_6  and  CAK_7 
REMARK    5  A    between atoms: CAK_7  and  N1_8 
ROOT
HETATM    1  N1  PNX  6259       2.469  35.193 237.539  1.00 20.00    -0.264 N 
HETATM    2  C6  PNX  6259       3.105  33.958 237.727  1.00 20.00     0.282 A 
HETATM    3  O6  PNX  6259       3.825  33.796 238.712  1.00 20.00    -0.265 OA
HETATM    4  C5  PNX  6259       2.905  32.916 236.827  1.00 20.00     0.149 A 
HETATM    5  N7  PNX  6259       3.332  31.657 236.746  1.00 20.00    -0.340 N 
HETATM    6  CAB PNX  6259       4.290  31.000 237.664  1.00 20.00     0.157 C 
HETATM    7  C8  PNX  6259       2.800  31.063 235.682  1.00 20.00     0.184 A 
HETATM    8  N9  PNX  6259       2.025  31.948 235.060  1.00 20.00    -0.336 N 
ATOM      9  H9  PNX  6259       1.488  31.775 234.210  1.00  0.00     0.168 HD
HETATM   10  C4  PNX  6259       2.066  33.096 235.731  1.00 20.00     0.145 A 
HETATM   11  N3  PNX  6259       1.426  34.326 235.529  1.00 20.00    -0.287 N 
HETATM   12  CAC PNX  6259       0.562  34.521 234.342  1.00 20.00     0.163 C 
HETATM   13  C2  PNX  6259       1.623  35.376 236.437  1.00 20.00     0.332 A 
HETATM   14  O2  PNX  6259       1.029  36.443 236.285  1.00 20.00    -0.246 OA
ENDROOT
BRANCH   1  15
HETATM   15  CAK PNX  6259       2.745  36.324 238.456  1.00 20.00     0.137 C 
BRANCH  15  16
HETATM   16  CAI PNX  6259       3.915  37.195 237.987  1.00 20.00     0.021 C 
BRANCH  16  17
HETATM   17  CAH PNX  6259       3.533  38.672 238.100  1.00 20.00     0.009 C 
BRANCH  17  18
HETATM   18  CAJ PNX  6259       2.197  38.906 238.809  1.00 20.00     0.078 C 
BRANCH  18  19
HETATM   19  CAM PNX  6259       1.138  39.560 237.916  1.00 20.00     0.123 C 
HETATM   20  CAA PNX  6259      -0.223  39.907 238.520  1.00 20.00     0.091 C 
HETATM   21  OAD PNX  6259       1.357  39.787 236.726  1.00 20.00    -0.298 OA
ENDBRANCH  18  19
ENDBRANCH  17  18
ENDBRANCH  16  17
ENDBRANCH  15  16
ENDBRANCH   1  15
TORSDOF 5
ENDMDL
MODEL 5
REMARK VINA RESULT:      -5.5      8.504     10.956
REMARK  5 active torsions:
REMARK  status: ('A' for Active; 'I' for Inactive)
REMARK    1  A    between atoms: CAJ_4  and  CAM_2 
REMARK    2  A    between atoms: CAH_5  and  CAJ_4 
REMARK    3  A    between atoms: CAH_5  and  CAI_6 
REMARK    4  A    between atoms: CAI_6  and  CAK_7 
REMARK    5  A    between atoms: CAK_7  and  N1_8 
ROOT
HETATM    1  N1  PNX  6259       0.466  37.379 235.787  1.00 20.00    -0.264 N 
HETATM    2  C6  PNX  6259       1.455  38.034 236.534  1.00 20.00     0.282 A 
HETATM    3  O6  PNX  6259       2.009  39.026 236.058  1.00 20.00    -0.265 OA
HETATM    4  C5  PNX  6259       1.792  37.587 237.807  1.00 20.00     0.149 A 
HETATM    5  N7  PNX  6259       2.643  37.997 238.746  1.00 20.00    -0.340 N 
HETATM    6  CAB PNX  6259       3.601  39.119 238.625  1.00 20.00     0.157 C 
HETATM    7  C8  PNX  6259       2.543  37.221 239.822  1.00 20.00     0.184 A 
HETATM    8  N9  PNX  6259       1.622  36.292 239.576  1.00 20.00    -0.336 N 
ATOM      9  H9  PNX  6259       1.333  35.556 240.221  1.00  0.00     0.168 HD
HETATM   10  C4  PNX  6259       1.141  36.483 238.350  1.00 20.00     0.145 A 
HETATM   11  N3  PNX  6259       0.152  35.816 237.615  1.00 20.00    -0.287 N 
HETATM   12  CAC PNX  6259      -0.511  34.621 238.185  1.00 20.00     0.163 C 
HETATM   13  C2  PNX  6259      -0.191  36.267 236.333  1.00 20.00     0.332 A 
HETATM   14  O2  PNX  6259      -1.088  35.710 235.702  1.00 20.00    -0.246 OA
ENDROOT
BRANCH   1  15
HETATM   15  CAK PNX  6259       0.165  37.810 234.401  1.00 20.00     0.137 C 
BRANCH  15  16
HETATM   16  CAI PNX  6259       1.091  37.163 233.366  1.00 20.00     0.021 C 
BRANCH  16  17
HETATM   17  CAH PNX  6259       0.256  36.392 232.342  1.00 20.00     0.009 C 
BRANCH  17  18
HETATM   18  CAJ PNX  6259       0.844  36.417 230.929  1.00 20.00     0.078 C 
BRANCH  18  19
HETATM   19  CAM PNX  6259       0.055  37.297 229.955  1.00 20.00     0.123 C 
HETATM   20  CAA PNX  6259      -1.169  38.054 230.474  1.00 20.00     0.091 C 
HETATM   21  OAD PNX  6259       0.373  37.384 228.770  1.00 20.00    -0.298 OA
ENDBRANCH  18  19
ENDBRANCH  17  18
ENDBRANCH  16  17
ENDBRANCH  15  16
ENDBRANCH   1  15
TORSDOF 5
ENDMDL
MODEL 6
REMARK VINA RESULT:      -5.4      8.632     11.084
REMARK  5 active torsions:
REMARK  status: ('A' for Active; 'I' for Inactive)
REMARK    1  A    between atoms: CAJ_4  and  CAM_2 
REMARK    2  A    between atoms: CAH_5  and  CAJ_4 
REMARK    3  A    between atoms: CAH_5  and  CAI_6 
REMARK    4  A    between atoms: CAI_6  and  CAK_7 
REMARK    5  A    between atoms: CAK_7  and  N1_8 
ROOT
HETATM    1  N1  PNX  6259       1.237  36.642 234.973  1.00 20.00    -0.264 N 
HETATM    2  C6  PNX  6259       1.410  35.324 235.419  1.00 20.00     0.282 A 
HETATM    3  O6  PNX  6259       0.926  34.401 234.765  1.00 20.00    -0.265 OA
HETATM    4  C5  PNX  6259       2.142  35.058 236.572  1.00 20.00     0.149 A 
HETATM    5  N7  PNX  6259       2.495  33.949 237.219  1.00 20.00    -0.340 N 
HETATM    6  CAB PNX  6259       2.091  32.569 236.867  1.00 20.00     0.157 C 
HETATM    7  C8  PNX  6259       3.246  34.256 238.273  1.00 20.00     0.184 A 
HETATM    8  N9  PNX  6259       3.376  35.580 238.315  1.00 20.00    -0.336 N 
ATOM      9  H9  PNX  6259       3.899  36.103 239.017  1.00  0.00     0.168 HD
HETATM   10  C4  PNX  6259       2.711  36.106 237.290  1.00 20.00     0.145 A 
HETATM   11  N3  PNX  6259       2.544  37.429 236.858  1.00 20.00    -0.287 N 
HETATM   12  CAC PNX  6259       3.124  38.540 237.646  1.00 20.00     0.163 C 
HETATM   13  C2  PNX  6259       1.811  37.699 235.695  1.00 20.00     0.332 A 
HETATM   14  O2  PNX  6259       1.699  38.855 235.290  1.00 20.00    -0.246 OA
ENDROOT
BRANCH   1  15
HETATM   15  CAK PNX  6259       0.393  36.927 233.788  1.00 20.00     0.137 C 
BRANCH  15  16
HETATM   16  CAI PNX  6259       1.197  36.970 232.485  1.00 20.00     0.021 C 
BRANCH  16  17
HETATM   17  CAH PNX  6259       0.513  36.095 231.432  1.00 20.00     0.009 C 
BRANCH  17  18
HETATM   18  CAJ PNX  6259      -0.726  36.743 230.809  1.00 20.00     0.078 C 
BRANCH  18  19
HETATM   19  CAM PNX  6259      -0.395  37.776 229.727  1.00 20.00     0.123 C 
HETATM   20  CAA PNX  6259      -1.027  39.166 229.818  1.00 20.00     0.091 C 
HETATM   21  OAD PNX  6259       0.343  37.499 228.783  1.00 20.00    -0.298 OA
ENDBRANCH  18  19
ENDBRANCH  17  18
ENDBRANCH  16  17
ENDBRANCH  15  16
ENDBRANCH   1  15
TORSDOF 5
ENDMDL
MODEL 7
REMARK VINA RESULT:      -5.4      8.970     11.023
REMARK  5 active torsions:
REMARK  status: ('A' for Active; 'I' for Inactive)
REMARK    1  A    between atoms: CAJ_4  and  CAM_2 
REMARK    2  A    between atoms: CAH_5  and  CAJ_4 
REMARK    3  A    between atoms: CAH_5  and  CAI_6 
REMARK    4  A    between atoms: CAI_6  and  CAK_7 
REMARK    5  A    between atoms: CAK_7  and  N1_8 
ROOT
HETATM    1  N1  PNX  6259       0.852  37.530 236.477  1.00 20.00    -0.264 N 
HETATM    2  C6  PNX  6259      -0.156  36.909 237.228  1.00 20.00     0.282 A 
HETATM    3  O6  PNX  6259       0.065  36.612 238.402  1.00 20.00    -0.265 OA
HETATM    4  C5  PNX  6259      -1.402  36.653 236.663  1.00 20.00     0.149 A 
HETATM    5  N7  PNX  6259      -2.537  36.118 237.109  1.00 20.00    -0.340 N 
HETATM    6  CAB PNX  6259      -2.757  35.533 238.451  1.00 20.00     0.157 C 
HETATM    7  C8  PNX  6259      -3.460  36.144 236.152  1.00 20.00     0.184 A 
HETATM    8  N9  PNX  6259      -2.916  36.696 235.070  1.00 20.00    -0.336 N 
ATOM      9  H9  PNX  6259      -3.388  36.846 234.178  1.00  0.00     0.168 HD
HETATM   10  C4  PNX  6259      -1.654  37.019 235.344  1.00 20.00     0.145 A 
HETATM   11  N3  PNX  6259      -0.656  37.638 234.581  1.00 20.00    -0.287 N 
HETATM   12  CAC PNX  6259      -0.921  37.992 233.168  1.00 20.00     0.163 C 
HETATM   13  C2  PNX  6259       0.599  37.900 235.149  1.00 20.00     0.332 A 
HETATM   14  O2  PNX  6259       1.463  38.482 234.495  1.00 20.00    -0.246 OA
ENDROOT
BRANCH   1  15
HETATM   15  CAK PNX  6259       2.201  37.731 237.057  1.00 20.00     0.137 C 
BRANCH  15  16
HETATM   16  CAI PNX  6259       2.324  39.048 237.830  1.00 20.00     0.021 C 
BRANCH  16  17
HETATM   17  CAH PNX  6259       3.626  39.051 238.634  1.00 20.00     0.009 C 
BRANCH  17  18
HETATM   18  CAJ PNX  6259       3.424  38.793 240.129  1.00 20.00     0.078 C 
BRANCH  18  19
HETATM   19  CAM PNX  6259       3.919  37.417 240.583  1.00 20.00     0.123 C 
HETATM   20  CAA PNX  6259       3.093  36.181 240.221  1.00 20.00     0.091 C 
HETATM   21  OAD PNX  6259       4.947  37.294 241.248  1.00 20.00    -0.298 OA
ENDBRANCH  18  19
ENDBRANCH  17  18
ENDBRANCH  16  17
ENDBRANCH  15  16
ENDBRANCH   1  15
TORSDOF 5
ENDMDL
MODEL 8
REMARK VINA RESULT:      -5.4     10.406     13.079
REMARK  5 active torsions:
REMARK  status: ('A' for Active; 'I' for Inactive)
REMARK    1  A    between atoms: CAJ_4  and  CAM_2 
REMARK    2  A    between atoms: CAH_5  and  CAJ_4 
REMARK    3  A    between atoms: CAH_5  and  CAI_6 
REMARK    4  A    between atoms: CAI_6  and  CAK_7 
REMARK    5  A    between atoms: CAK_7  and  N1_8 
ROOT
HETATM    1  N1  PNX  6259       2.364  35.051 236.972  1.00 20.00    -0.264 N 
HETATM    2  C6  PNX  6259       3.001  35.699 238.040  1.00 20.00     0.282 A 
HETATM    3  O6  PNX  6259       3.502  35.024 238.939  1.00 20.00    -0.265 OA
HETATM    4  C5  PNX  6259       3.089  37.087 238.074  1.00 20.00     0.149 A 
HETATM    5  N7  PNX  6259       3.634  37.968 238.911  1.00 20.00    -0.340 N 
HETATM    6  CAB PNX  6259       4.299  37.654 240.196  1.00 20.00     0.157 C 
HETATM    7  C8  PNX  6259       3.464  39.203 238.447  1.00 20.00     0.184 A 
HETATM    8  N9  PNX  6259       2.794  39.123 237.299  1.00 20.00    -0.336 N 
ATOM      9  H9  PNX  6259       2.519  39.914 236.716  1.00  0.00     0.168 HD
HETATM   10  C4  PNX  6259       2.545  37.843 237.039  1.00 20.00     0.145 A 
HETATM   11  N3  PNX  6259       1.903  37.209 235.966  1.00 20.00    -0.287 N 
HETATM   12  CAC PNX  6259       1.297  38.021 234.887  1.00 20.00     0.163 C 
HETATM   13  C2  PNX  6259       1.817  35.811 235.928  1.00 20.00     0.332 A 
HETATM   14  O2  PNX  6259       1.292  35.251 234.967  1.00 20.00    -0.246 OA
ENDROOT
BRANCH   1  15
HETATM   15  CAK PNX  6259       2.204  33.578 236.978  1.00 20.00     0.137 C 
BRANCH  15  16
HETATM   16  CAI PNX  6259       3.452  32.845 236.473  1.00 20.00     0.021 C 
BRANCH  16  17
HETATM   17  CAH PNX  6259       3.079  31.960 235.282  1.00 20.00     0.009 C 
BRANCH  17  18
HETATM   18  CAJ PNX  6259       1.570  31.847 235.051  1.00 20.00     0.078 C 
BRANCH  18  19
HETATM   19  CAM PNX  6259       1.190  31.653 233.580  1.00 20.00     0.123 C 
HETATM   20  CAA PNX  6259       0.123  32.563 232.969  1.00 20.00     0.091 C 
HETATM   21  OAD PNX  6259       1.707  30.770 232.897  1.00 20.00    -0.298 OA
ENDBRANCH  18  19
ENDBRANCH  17  18
ENDBRANCH  16  17
ENDBRANCH  15  16
ENDBRANCH   1  15
TORSDOF 5
ENDMDL
MODEL 9
REMARK VINA RESULT:      -5.2     10.905     13.089
REMARK  5 active torsions:
REMARK  status: ('A' for Active; 'I' for Inactive)
REMARK    1  A    between atoms: CAJ_4  and  CAM_2 
REMARK    2  A    between atoms: CAH_5  and  CAJ_4 
REMARK    3  A    between atoms: CAH_5  and  CAI_6 
REMARK    4  A    between atoms: CAI_6  and  CAK_7 
REMARK    5  A    between atoms: CAK_7  and  N1_8 
ROOT
HETATM    1  N1  PNX  6259       2.213  35.375 238.662  1.00 20.00    -0.264 N 
HETATM    2  C6  PNX  6259       1.465  35.979 237.642  1.00 20.00     0.282 A 
HETATM    3  O6  PNX  6259       0.830  35.270 236.861  1.00 20.00    -0.265 OA
HETATM    4  C5  PNX  6259       1.418  37.365 237.525  1.00 20.00     0.149 A 
HETATM    5  N7  PNX  6259       0.798  38.213 236.706  1.00 20.00    -0.340 N 
HETATM    6  CAB PNX  6259      -0.037  37.846 235.540  1.00 20.00     0.157 C 
HETATM    7  C8  PNX  6259       1.066  39.466 237.061  1.00 20.00     0.184 A 
HETATM    8  N9  PNX  6259       1.876  39.432 238.116  1.00 20.00    -0.336 N 
ATOM      9  H9  PNX  6259       2.250  40.246 238.605  1.00  0.00     0.168 HD
HETATM   10  C4  PNX  6259       2.116  38.161 238.429  1.00 20.00     0.145 A 
HETATM   11  N3  PNX  6259       2.870  37.571 239.452  1.00 20.00    -0.287 N 
HETATM   12  CAC PNX  6259       3.636  38.424 240.389  1.00 20.00     0.163 C 
HETATM   13  C2  PNX  6259       2.915  36.176 239.574  1.00 20.00     0.332 A 
HETATM   14  O2  PNX  6259       3.541  35.656 240.496  1.00 20.00    -0.246 OA
ENDROOT
BRANCH   1  15
HETATM   15  CAK PNX  6259       2.323  33.898 238.736  1.00 20.00     0.137 C 
BRANCH  15  16
HETATM   16  CAI PNX  6259       3.486  33.349 237.903  1.00 20.00     0.021 C 
BRANCH  16  17
HETATM   17  CAH PNX  6259       3.175  31.915 237.471  1.00 20.00     0.009 C 
BRANCH  17  18
HETATM   18  CAJ PNX  6259       1.974  31.807 236.527  1.00 20.00     0.078 C 
BRANCH  18  19
HETATM   19  CAM PNX  6259       2.331  32.044 235.056  1.00 20.00     0.123 C 
HETATM   20  CAA PNX  6259       1.236  32.516 234.099  1.00 20.00     0.091 C 
HETATM   21  OAD PNX  6259       3.468  31.837 234.633  1.00 20.00    -0.298 OA
ENDBRANCH  18  19
ENDBRANCH  17  18
ENDBRANCH  16  17
ENDBRANCH  15  16
ENDBRANCH   1  15
TORSDOF 5
ENDMDL
