MODEL 1
REMARK VINA RESULT:      -6.9      0.000      0.000
REMARK  6 active torsions:
REMARK  status: ('A' for Active; 'I' for Inactive)
REMARK    1  A    between atoms: C2_3  and  C21_5 
REMARK       I    between atoms: C21_5  and  N21_6 
REMARK    2  A    between atoms: C3_9  and  O3_10 
REMARK    3  A    between atoms: C4_12  and  N4_13 
REMARK    4  A    between atoms: C5_17  and  O5_18 
REMARK    5  A    between atoms: C10_27  and  O10_28 
REMARK    6  A    between atoms: C4B_36  and  O13_37 
ROOT
HETATM    1  C1  DXT  3265      -2.907  37.154 234.218  1.00 20.00     0.210 C 
HETATM    2  O1  DXT  3265      -3.144  36.687 235.382  1.00 20.00    -0.288 OA
HETATM    3  C2  DXT  3265      -3.876  37.538 233.267  1.00 20.00     0.112 C 
HETATM    4  C3  DXT  3265      -3.502  37.771 231.998  1.00 20.00     0.096 C 
HETATM    5  C4  DXT  3265      -2.144  37.363 231.420  1.00 20.00     0.289 C 
HETATM    6  C4A DXT  3265      -1.139  37.032 232.497  1.00 20.00     0.105 C 
HETATM    7  C5  DXT  3265      -0.927  35.525 232.625  1.00 20.00     0.138 C 
HETATM    8  C5A DXT  3265       0.133  35.075 233.596  1.00 20.00     0.064 C 
HETATM    9  C6  DXT  3265       0.084  33.618 234.010  1.00 20.00     0.027 C 
HETATM   10  C61 DXT  3265      -0.028  32.696 232.814  1.00 20.00     0.016 C 
HETATM   11  C6A DXT  3265       1.286  33.378 234.841  1.00 20.00    -0.037 A 
HETATM   12  C7  DXT  3265       1.892  32.149 234.846  1.00 20.00     0.009 A 
HETATM   13  C8  DXT  3265       3.007  31.945 235.632  1.00 20.00     0.003 A 
HETATM   14  C9  DXT  3265       3.548  32.925 236.438  1.00 20.00     0.037 A 
HETATM   15  C10 DXT  3265       2.959  34.153 236.476  1.00 20.00     0.080 A 
HETATM   16  C6B DXT  3265       1.832  34.376 235.641  1.00 20.00     0.054 A 
HETATM   17  C11 DXT  3265       1.271  35.744 235.625  1.00 20.00     0.196 C 
HETATM   18  O11 DXT  3265       1.642  36.525 236.543  1.00 20.00    -0.287 OA
HETATM   19  C5B DXT  3265       0.328  36.045 234.727  1.00 20.00     0.050 C 
HETATM   20  C12 DXT  3265      -0.422  37.219 234.836  1.00 20.00     0.202 C 
HETATM   21  O12 DXT  3265      -0.174  38.073 235.750  1.00 20.00    -0.289 OA
HETATM   22  C4B DXT  3265      -1.508  37.572 233.856  1.00 20.00     0.196 C 
ENDROOT
BRANCH   3  23
HETATM   23  C21 DXT  3265      -5.260  37.297 233.533  1.00 20.00     0.255 C 
HETATM   24  O21 DXT  3265      -5.953  36.538 232.795  1.00 20.00    -0.268 OA
HETATM   25  N21 DXT  3265      -5.905  37.852 234.560  1.00 20.00    -0.366 N 
ATOM     26 2H21 DXT  3265      -5.346  38.464 235.155  1.00  0.00     0.159 HD
ATOM     27 1H21 DXT  3265      -6.893  37.680 234.750  1.00  0.00     0.159 HD
ENDBRANCH   3  23
BRANCH   4  28
HETATM   28  O3  DXT  3265      -4.290  38.304 231.076  1.00 20.00    -0.362 OA
ATOM     29  H3  DXT  3265      -4.118  39.131 230.640  1.00  0.00     0.217 HD
ENDBRANCH   4  28
BRANCH  22  30
HETATM   30  O13 DXT  3265      -1.521  39.038 233.772  1.00 20.00    -0.373 OA
ATOM     31  H13 DXT  3265      -0.968  39.353 234.477  1.00  0.00     0.211 HD
ENDBRANCH  22  30
BRANCH   5  32
HETATM   32  N4  DXT  3265      -1.722  38.394 230.354  1.00 20.00     0.091 N 
HETATM   33  C41 DXT  3265      -0.420  38.031 229.655  1.00 20.00     0.310 C 
HETATM   34  C42 DXT  3265      -1.509  39.831 230.800  1.00 20.00     0.310 C 
ENDBRANCH   5  32
BRANCH   7  35
HETATM   35  O5  DXT  3265      -0.966  34.842 231.418  1.00 20.00    -0.394 OA
ATOM     36  H5  DXT  3265      -0.897  33.898 231.504  1.00  0.00     0.210 HD
ENDBRANCH   7  35
BRANCH  15  37
HETATM   37  O10 DXT  3265       3.462  35.094 237.258  1.00 20.00    -0.360 OA
ATOM     38  H10 DXT  3265       3.141  35.252 238.138  1.00  0.00     0.217 HD
ENDBRANCH  15  37
TORSDOF 6
ENDMDL
MODEL 2
REMARK VINA RESULT:      -6.7      2.185      2.916
REMARK  6 active torsions:
REMARK  status: ('A' for Active; 'I' for Inactive)
REMARK    1  A    between atoms: C2_3  and  C21_5 
REMARK       I    between atoms: C21_5  and  N21_6 
REMARK    2  A    between atoms: C3_9  and  O3_10 
REMARK    3  A    between atoms: C4_12  and  N4_13 
REMARK    4  A    between atoms: C5_17  and  O5_18 
REMARK    5  A    between atoms: C10_27  and  O10_28 
REMARK    6  A    between atoms: C4B_36  and  O13_37 
ROOT
HETATM    1  C1  DXT  3265      -2.662  36.110 232.552  1.00 20.00     0.210 C 
HETATM    2  O1  DXT  3265      -3.117  36.506 233.676  1.00 20.00    -0.288 OA
HETATM    3  C2  DXT  3265      -3.398  35.450 231.545  1.00 20.00     0.112 C 
HETATM    4  C3  DXT  3265      -2.748  34.865 230.526  1.00 20.00     0.096 C 
HETATM    5  C4  DXT  3265      -1.240  34.594 230.518  1.00 20.00     0.289 C 
HETATM    6  C4A DXT  3265      -0.511  35.386 231.576  1.00 20.00     0.105 C 
HETATM    7  C5  DXT  3265      -0.112  34.509 232.761  1.00 20.00     0.138 C 
HETATM    8  C5A DXT  3265       0.717  35.165 233.834  1.00 20.00     0.064 C 
HETATM    9  C6  DXT  3265       0.784  34.436 235.162  1.00 20.00     0.027 C 
HETATM   10  C61 DXT  3265       1.128  32.973 234.986  1.00 20.00     0.016 C 
HETATM   11  C6A DXT  3265       1.752  35.183 235.999  1.00 20.00    -0.037 A 
HETATM   12  C7  DXT  3265       2.516  34.526 236.929  1.00 20.00     0.009 A 
HETATM   13  C8  DXT  3265       3.407  35.241 237.702  1.00 20.00     0.003 A 
HETATM   14  C9  DXT  3265       3.564  36.608 237.599  1.00 20.00     0.037 A 
HETATM   15  C10 DXT  3265       2.806  37.297 236.701  1.00 20.00     0.080 A 
HETATM   16  C6B DXT  3265       1.913  36.558 235.879  1.00 20.00     0.054 A 
HETATM   17  C11 DXT  3265       1.174  37.315 234.846  1.00 20.00     0.196 C 
HETATM   18  O11 DXT  3265       1.171  38.572 234.950  1.00 20.00    -0.287 OA
HETATM   19  C5B DXT  3265       0.461  36.641 233.938  1.00 20.00     0.050 C 
HETATM   20  C12 DXT  3265      -0.462  37.295 233.117  1.00 20.00     0.202 C 
HETATM   21  O12 DXT  3265      -0.592  38.563 233.157  1.00 20.00    -0.289 OA
HETATM   22  C4B DXT  3265      -1.298  36.559 232.104  1.00 20.00     0.196 C 
ENDROOT
BRANCH   3  23
HETATM   23  C21 DXT  3265      -4.749  35.061 231.801  1.00 20.00     0.255 C 
HETATM   24  O21 DXT  3265      -5.109  33.849 231.756  1.00 20.00    -0.268 OA
HETATM   25  N21 DXT  3265      -5.711  35.939 232.094  1.00 20.00    -0.366 N 
ATOM     26 2H21 DXT  3265      -5.420  36.917 232.130  1.00  0.00     0.159 HD
ATOM     27 1H21 DXT  3265      -6.675  35.662 232.276  1.00  0.00     0.159 HD
ENDBRANCH   3  23
BRANCH   4  28
HETATM   28  O3  DXT  3265      -3.341  34.378 229.447  1.00 20.00    -0.362 OA
ATOM     29  H3  DXT  3265      -3.206  33.498 229.114  1.00  0.00     0.217 HD
ENDBRANCH   4  28
BRANCH  22  30
HETATM   30  O13 DXT  3265      -1.511  37.497 230.994  1.00 20.00    -0.373 OA
ATOM     31  H13 DXT  3265      -2.197  38.092 231.272  1.00  0.00     0.211 HD
ENDBRANCH  22  30
BRANCH   5  32
HETATM   32  N4  DXT  3265      -0.719  34.702 229.071  1.00 20.00     0.091 N 
HETATM   33  C41 DXT  3265      -0.071  33.419 228.573  1.00 20.00     0.310 C 
HETATM   34  C42 DXT  3265       0.313  35.775 228.766  1.00 20.00     0.310 C 
ENDBRANCH   5  32
BRANCH   7  35
HETATM   35  O5  DXT  3265       0.268  33.221 232.411  1.00 20.00    -0.394 OA
ATOM     36  H5  DXT  3265       1.119  33.167 231.991  1.00  0.00     0.210 HD
ENDBRANCH   7  35
BRANCH  15  37
HETATM   37  O10 DXT  3265       2.939  38.610 236.607  1.00 20.00    -0.360 OA
ATOM     38  H10 DXT  3265       3.777  39.028 236.454  1.00  0.00     0.217 HD
ENDBRANCH  15  37
TORSDOF 6
ENDMDL
MODEL 3
REMARK VINA RESULT:      -6.6      3.088      6.463
REMARK  6 active torsions:
REMARK  status: ('A' for Active; 'I' for Inactive)
REMARK    1  A    between atoms: C2_3  and  C21_5 
REMARK       I    between atoms: C21_5  and  N21_6 
REMARK    2  A    between atoms: C3_9  and  O3_10 
REMARK    3  A    between atoms: C4_12  and  N4_13 
REMARK    4  A    between atoms: C5_17  and  O5_18 
REMARK    5  A    between atoms: C10_27  and  O10_28 
REMARK    6  A    between atoms: C4B_36  and  O13_37 
ROOT
HETATM    1  C1  DXT  3265       1.296  37.761 235.383  1.00 20.00     0.210 C 
HETATM    2  O1  DXT  3265       2.013  38.164 234.408  1.00 20.00    -0.288 OA
HETATM    3  C2  DXT  3265       1.696  37.695 236.734  1.00 20.00     0.112 C 
HETATM    4  C3  DXT  3265       0.941  37.020 237.616  1.00 20.00     0.096 C 
HETATM    5  C4  DXT  3265      -0.179  36.054 237.217  1.00 20.00     0.289 C 
HETATM    6  C4A DXT  3265      -0.601  36.229 235.778  1.00 20.00     0.105 C 
HETATM    7  C5  DXT  3265      -0.059  35.109 234.892  1.00 20.00     0.138 C 
HETATM    8  C5A DXT  3265      -0.502  35.117 233.453  1.00 20.00     0.064 C 
HETATM    9  C6  DXT  3265       0.314  34.267 232.499  1.00 20.00     0.027 C 
HETATM   10  C61 DXT  3265       0.519  32.863 233.029  1.00 20.00     0.016 C 
HETATM   11  C6A DXT  3265      -0.382  34.318 231.193  1.00 20.00    -0.037 A 
HETATM   12  C7  DXT  3265      -0.334  33.247 230.339  1.00 20.00     0.009 A 
HETATM   13  C8  DXT  3265      -0.983  33.319 229.124  1.00 20.00     0.003 A 
HETATM   14  C9  DXT  3265      -1.681  34.433 228.709  1.00 20.00     0.037 A 
HETATM   15  C10 DXT  3265      -1.732  35.525 229.522  1.00 20.00     0.080 A 
HETATM   16  C6B DXT  3265      -1.093  35.442 230.788  1.00 20.00     0.054 A 
HETATM   17  C11 DXT  3265      -1.246  36.602 231.692  1.00 20.00     0.196 C 
HETATM   18  O11 DXT  3265      -1.679  37.671 231.183  1.00 20.00    -0.287 OA
HETATM   19  C5B DXT  3265      -0.816  36.498 232.954  1.00 20.00     0.050 C 
HETATM   20  C12 DXT  3265      -0.686  37.629 233.765  1.00 20.00     0.202 C 
HETATM   21  O12 DXT  3265      -1.050  38.779 233.351  1.00 20.00    -0.289 OA
HETATM   22  C4B DXT  3265      -0.179  37.547 235.180  1.00 20.00     0.196 C 
ENDROOT
BRANCH   3  23
HETATM   23  C21 DXT  3265       3.052  37.983 237.082  1.00 20.00     0.255 C 
HETATM   24  O21 DXT  3265       3.341  38.828 237.979  1.00 20.00    -0.268 OA
HETATM   25  N21 DXT  3265       4.091  37.393 236.489  1.00 20.00    -0.366 N 
ATOM     26 2H21 DXT  3265       3.859  36.711 235.766  1.00  0.00     0.159 HD
ATOM     27 1H21 DXT  3265       5.059  37.598 236.737  1.00  0.00     0.159 HD
ENDBRANCH   3  23
BRANCH   4  28
HETATM   28  O3  DXT  3265       1.126  37.044 238.927  1.00 20.00    -0.362 OA
ATOM     29  H3  DXT  3265       1.896  37.404 239.352  1.00  0.00     0.217 HD
ENDBRANCH   4  28
BRANCH  22  30
HETATM   30  O13 DXT  3265      -0.861  38.618 235.919  1.00 20.00    -0.373 OA
ATOM     31  H13 DXT  3265      -0.326  39.397 235.820  1.00  0.00     0.211 HD
ENDBRANCH  22  30
BRANCH   5  32
HETATM   32  N4  DXT  3265      -1.286  36.099 238.288  1.00 20.00     0.091 N 
HETATM   33  C41 DXT  3265      -1.464  34.777 239.021  1.00 20.00     0.310 C 
HETATM   34  C42 DXT  3265      -2.693  36.461 237.840  1.00 20.00     0.310 C 
ENDBRANCH   5  32
BRANCH   7  35
HETATM   35  O5  DXT  3265      -0.028  33.865 235.505  1.00 20.00    -0.394 OA
ATOM     36  H5  DXT  3265      -0.786  33.322 235.322  1.00  0.00     0.210 HD
ENDBRANCH   7  35
BRANCH  15  37
HETATM   37  O10 DXT  3265      -2.386  36.605 229.125  1.00 20.00    -0.360 OA
ATOM     38  H10 DXT  3265      -3.327  36.615 228.999  1.00  0.00     0.217 HD
ENDBRANCH  15  37
TORSDOF 6
ENDMDL
MODEL 4
REMARK VINA RESULT:      -6.6      3.504      6.853
REMARK  6 active torsions:
REMARK  status: ('A' for Active; 'I' for Inactive)
REMARK    1  A    between atoms: C2_3  and  C21_5 
REMARK       I    between atoms: C21_5  and  N21_6 
REMARK    2  A    between atoms: C3_9  and  O3_10 
REMARK    3  A    between atoms: C4_12  and  N4_13 
REMARK    4  A    between atoms: C5_17  and  O5_18 
REMARK    5  A    between atoms: C10_27  and  O10_28 
REMARK    6  A    between atoms: C4B_36  and  O13_37 
ROOT
HETATM    1  C1  DXT  3265       1.416  36.503 237.784  1.00 20.00     0.210 C 
HETATM    2  O1  DXT  3265       2.376  37.066 237.162  1.00 20.00    -0.288 OA
HETATM    3  C2  DXT  3265       1.499  35.877 239.046  1.00 20.00     0.112 C 
HETATM    4  C3  DXT  3265       0.485  35.108 239.472  1.00 20.00     0.096 C 
HETATM    5  C4  DXT  3265      -0.644  34.605 238.567  1.00 20.00     0.289 C 
HETATM    6  C4A DXT  3265      -0.715  35.366 237.265  1.00 20.00     0.105 C 
HETATM    7  C5  DXT  3265      -0.153  34.548 236.103  1.00 20.00     0.138 C 
HETATM    8  C5A DXT  3265      -0.268  35.161 234.732  1.00 20.00     0.064 C 
HETATM    9  C6  DXT  3265       0.610  34.555 233.655  1.00 20.00     0.027 C 
HETATM   10  C61 DXT  3265       0.499  33.046 233.620  1.00 20.00     0.016 C 
HETATM   11  C6A DXT  3265       0.229  35.214 232.385  1.00 20.00    -0.037 A 
HETATM   12  C7  DXT  3265       0.313  34.534 231.198  1.00 20.00     0.009 A 
HETATM   13  C8  DXT  3265      -0.042  35.168 230.025  1.00 20.00     0.003 A 
HETATM   14  C9  DXT  3265      -0.472  36.478 229.979  1.00 20.00     0.037 A 
HETATM   15  C10 DXT  3265      -0.547  37.193 231.137  1.00 20.00     0.080 A 
HETATM   16  C6B DXT  3265      -0.216  36.531 232.349  1.00 20.00     0.054 A 
HETATM   17  C11 DXT  3265      -0.400  37.297 233.601  1.00 20.00     0.196 C 
HETATM   18  O11 DXT  3265      -0.560  38.543 233.490  1.00 20.00    -0.287 OA
HETATM   19  C5B DXT  3265      -0.272  36.663 234.771  1.00 20.00     0.050 C 
HETATM   20  C12 DXT  3265      -0.167  37.376 235.968  1.00 20.00     0.202 C 
HETATM   21  O12 DXT  3265      -0.269  38.647 235.986  1.00 20.00    -0.289 OA
HETATM   22  C4B DXT  3265       0.005  36.691 237.297  1.00 20.00     0.196 C 
ENDROOT
BRANCH   3  23
HETATM   23  C21 DXT  3265       2.774  35.730 239.676  1.00 20.00     0.255 C 
HETATM   24  O21 DXT  3265       3.326  34.598 239.795  1.00 20.00    -0.268 OA
HETATM   25  N21 DXT  3265       3.455  36.761 240.180  1.00 20.00    -0.366 N 
ATOM     26 2H21 DXT  3265       3.010  37.674 240.084  1.00  0.00     0.159 HD
ATOM     27 1H21 DXT  3265       4.364  36.656 240.629  1.00  0.00     0.159 HD
ENDBRANCH   3  23
BRANCH   4  28
HETATM   28  O3  DXT  3265       0.383  34.623 240.701  1.00 20.00    -0.362 OA
ATOM     29  H3  DXT  3265      -0.434  34.345 241.099  1.00  0.00     0.217 HD
ENDBRANCH   4  28
BRANCH  22  30
HETATM   30  O13 DXT  3265      -0.667  37.545 238.286  1.00 20.00    -0.373 OA
ATOM     31  H13 DXT  3265      -1.080  36.962 238.910  1.00  0.00     0.211 HD
ENDBRANCH  22  30
BRANCH   5  32
HETATM   32  N4  DXT  3265      -1.940  34.498 239.393  1.00 20.00     0.091 N 
HETATM   33  C41 DXT  3265      -2.483  33.078 239.471  1.00 20.00     0.310 C 
HETATM   34  C42 DXT  3265      -3.137  35.323 238.948  1.00 20.00     0.310 C 
ENDBRANCH   5  32
BRANCH   7  35
HETATM   35  O5  DXT  3265      -0.429  33.190 236.180  1.00 20.00    -0.394 OA
ATOM     36  H5  DXT  3265      -1.266  32.985 236.580  1.00  0.00     0.210 HD
ENDBRANCH   7  35
BRANCH  15  37
HETATM   37  O10 DXT  3265      -0.943  38.454 231.100  1.00 20.00    -0.360 OA
ATOM     38  H10 DXT  3265      -1.733  38.754 231.531  1.00  0.00     0.217 HD
ENDBRANCH  15  37
TORSDOF 6
ENDMDL
MODEL 5
REMARK VINA RESULT:      -6.5      3.307      7.425
REMARK  6 active torsions:
REMARK  status: ('A' for Active; 'I' for Inactive)
REMARK    1  A    between atoms: C2_3  and  C21_5 
REMARK       I    between atoms: C21_5  and  N21_6 
REMARK    2  A    between atoms: C3_9  and  O3_10 
REMARK    3  A    between atoms: C4_12  and  N4_13 
REMARK    4  A    between atoms: C5_17  and  O5_18 
REMARK    5  A    between atoms: C10_27  and  O10_28 
REMARK    6  A    between atoms: C4B_36  and  O13_37 
ROOT
HETATM    1  C1  DXT  3265       0.789  37.017 238.294  1.00 20.00     0.210 C 
HETATM    2  O1  DXT  3265       0.411  38.230 238.185  1.00 20.00    -0.288 OA
HETATM    3  C2  DXT  3265       1.971  36.571 238.922  1.00 20.00     0.112 C 
HETATM    4  C3  DXT  3265       2.374  35.302 238.748  1.00 20.00     0.096 C 
HETATM    5  C4  DXT  3265       1.812  34.367 237.672  1.00 20.00     0.289 C 
HETATM    6  C4A DXT  3265       0.513  34.875 237.095  1.00 20.00     0.105 C 
HETATM    7  C5  DXT  3265       0.711  35.472 235.703  1.00 20.00     0.138 C 
HETATM    8  C5A DXT  3265      -0.533  35.916 234.979  1.00 20.00     0.064 C 
HETATM    9  C6  DXT  3265      -0.322  36.842 233.797  1.00 20.00     0.027 C 
HETATM   10  C61 DXT  3265       0.735  36.315 232.851  1.00 20.00     0.016 C 
HETATM   11  C6A DXT  3265      -1.651  37.026 233.169  1.00 20.00    -0.037 A 
HETATM   12  C7  DXT  3265      -1.756  37.231 231.817  1.00 20.00     0.009 A 
HETATM   13  C8  DXT  3265      -3.003  37.407 231.253  1.00 20.00     0.003 A 
HETATM   14  C9  DXT  3265      -4.169  37.402 231.989  1.00 20.00     0.037 A 
HETATM   15  C10 DXT  3265      -4.101  37.223 233.339  1.00 20.00     0.080 A 
HETATM   16  C6B DXT  3265      -2.822  37.007 233.917  1.00 20.00     0.054 A 
HETATM   17  C11 DXT  3265      -2.784  36.717 235.366  1.00 20.00     0.196 C 
HETATM   18  O11 DXT  3265      -3.832  36.959 236.026  1.00 20.00    -0.287 OA
HETATM   19  C5B DXT  3265      -1.629  36.333 235.919  1.00 20.00     0.050 C 
HETATM   20  C12 DXT  3265      -1.467  36.310 237.306  1.00 20.00     0.202 C 
HETATM   21  O12 DXT  3265      -2.440  36.576 238.085  1.00 20.00    -0.289 OA
HETATM   22  C4B DXT  3265      -0.169  35.908 237.956  1.00 20.00     0.196 C 
ENDROOT
BRANCH   3  23
HETATM   23  C21 DXT  3265       2.923  37.528 239.392  1.00 20.00     0.255 C 
HETATM   24  O21 DXT  3265       4.150  37.440 239.096  1.00 20.00    -0.268 OA
HETATM   25  N21 DXT  3265       2.589  38.559 240.169  1.00 20.00    -0.366 N 
ATOM     26 2H21 DXT  3265       1.599  38.629 240.408  1.00  0.00     0.159 HD
ATOM     27 1H21 DXT  3265       3.268  39.241 240.505  1.00  0.00     0.159 HD
ENDBRANCH   3  23
BRANCH   4  28
HETATM   28  O3  DXT  3265       3.360  34.734 239.426  1.00 20.00    -0.362 OA
ATOM     29  H3  DXT  3265       3.973  35.208 239.977  1.00  0.00     0.217 HD
ENDBRANCH   4  28
BRANCH  22  30
HETATM   30  O13 DXT  3265      -0.532  35.268 239.228  1.00 20.00    -0.373 OA
ATOM     31  H13 DXT  3265       0.115  35.549 239.864  1.00  0.00     0.211 HD
ENDBRANCH  22  30
BRANCH   5  32
HETATM   32  N4  DXT  3265       1.830  32.921 238.204  1.00 20.00     0.091 N 
HETATM   33  C41 DXT  3265       2.768  32.010 237.426  1.00 20.00     0.310 C 
HETATM   34  C42 DXT  3265       0.516  32.157 238.231  1.00 20.00     0.310 C 
ENDBRANCH   5  32
BRANCH   7  35
HETATM   35  O5  DXT  3265       1.652  34.808 234.929  1.00 20.00    -0.394 OA
ATOM     36  H5  DXT  3265       2.512  35.212 234.931  1.00  0.00     0.210 HD
ENDBRANCH   7  35
BRANCH  15  37
HETATM   37  O10 DXT  3265      -5.214  37.232 234.054  1.00 20.00    -0.360 OA
ATOM     38  H10 DXT  3265      -5.342  36.666 234.806  1.00  0.00     0.217 HD
ENDBRANCH  15  37
TORSDOF 6
ENDMDL
MODEL 6
REMARK VINA RESULT:      -6.4      1.883      4.266
REMARK  6 active torsions:
REMARK  status: ('A' for Active; 'I' for Inactive)
REMARK    1  A    between atoms: C2_3  and  C21_5 
REMARK       I    between atoms: C21_5  and  N21_6 
REMARK    2  A    between atoms: C3_9  and  O3_10 
REMARK    3  A    between atoms: C4_12  and  N4_13 
REMARK    4  A    between atoms: C5_17  and  O5_18 
REMARK    5  A    between atoms: C10_27  and  O10_28 
REMARK    6  A    between atoms: C4B_36  and  O13_37 
ROOT
HETATM    1  C1  DXT  3265      -0.180  36.280 231.331  1.00 20.00     0.210 C 
HETATM    2  O1  DXT  3265       1.038  36.002 231.075  1.00 20.00    -0.288 OA
HETATM    3  C2  DXT  3265      -1.044  37.046 230.521  1.00 20.00     0.112 C 
HETATM    4  C3  DXT  3265      -2.215  37.474 231.020  1.00 20.00     0.096 C 
HETATM    5  C4  DXT  3265      -2.565  37.452 232.511  1.00 20.00     0.289 C 
HETATM    6  C4A DXT  3265      -1.641  36.559 233.303  1.00 20.00     0.105 C 
HETATM    7  C5  DXT  3265      -0.629  37.370 234.110  1.00 20.00     0.138 C 
HETATM    8  C5A DXT  3265       0.280  36.591 235.025  1.00 20.00     0.064 C 
HETATM    9  C6  DXT  3265       1.513  37.322 235.519  1.00 20.00     0.027 C 
HETATM   10  C61 DXT  3265       1.174  38.689 236.074  1.00 20.00     0.016 C 
HETATM   11  C6A DXT  3265       2.167  36.423 236.498  1.00 20.00    -0.037 A 
HETATM   12  C7  DXT  3265       2.866  36.942 237.557  1.00 20.00     0.009 A 
HETATM   13  C8  DXT  3265       3.473  36.087 238.453  1.00 20.00     0.003 A 
HETATM   14  C9  DXT  3265       3.425  34.714 238.334  1.00 20.00     0.037 A 
HETATM   15  C10 DXT  3265       2.758  34.162 237.281  1.00 20.00     0.080 A 
HETATM   16  C6B DXT  3265       2.103  35.040 236.376  1.00 20.00     0.054 A 
HETATM   17  C11 DXT  3265       1.304  34.415 235.300  1.00 20.00     0.196 C 
HETATM   18  O11 DXT  3265       1.486  33.185 235.093  1.00 20.00    -0.287 OA
HETATM   19  C5B DXT  3265       0.530  35.193 234.536  1.00 20.00     0.050 C 
HETATM   20  C12 DXT  3265      -0.029  34.710 233.350  1.00 20.00     0.202 C 
HETATM   21  O12 DXT  3265       0.118  33.491 233.005  1.00 20.00    -0.289 OA
HETATM   22  C4B DXT  3265      -0.882  35.569 232.456  1.00 20.00     0.196 C 
ENDROOT
BRANCH   3  23
HETATM   23  C21 DXT  3265      -0.527  37.691 229.354  1.00 20.00     0.255 C 
HETATM   24  O21 DXT  3265      -0.477  38.951 229.262  1.00 20.00    -0.268 OA
HETATM   25  N21 DXT  3265      -0.076  37.016 228.295  1.00 20.00    -0.366 N 
ATOM     26 2H21 DXT  3265      -0.117  35.999 228.369  1.00  0.00     0.159 HD
ATOM     27 1H21 DXT  3265       0.292  37.476 227.463  1.00  0.00     0.159 HD
ENDBRANCH   3  23
BRANCH   4  28
HETATM   28  O3  DXT  3265      -3.169  38.042 230.299  1.00 20.00    -0.362 OA
ATOM     29  H3  DXT  3265      -4.019  37.650 230.133  1.00  0.00     0.217 HD
ENDBRANCH   4  28
BRANCH  22  30
HETATM   30  O13 DXT  3265      -1.858  34.666 231.833  1.00 20.00    -0.373 OA
ATOM     31  H13 DXT  3265      -1.666  34.661 230.903  1.00  0.00     0.211 HD
ENDBRANCH  22  30
BRANCH   5  32
HETATM   32  N4  DXT  3265      -4.080  37.216 232.667  1.00 20.00     0.091 N 
HETATM   33  C41 DXT  3265      -4.717  38.100 233.730  1.00 20.00     0.310 C 
HETATM   34  C42 DXT  3265      -4.547  35.815 233.029  1.00 20.00     0.310 C 
ENDBRANCH   5  32
BRANCH   7  35
HETATM   35  O5  DXT  3265      -1.133  38.554 234.628  1.00 20.00    -0.394 OA
ATOM     36  H5  DXT  3265      -0.831  38.753 235.507  1.00  0.00     0.210 HD
ENDBRANCH   7  35
BRANCH  15  37
HETATM   37  O10 DXT  3265       2.720  32.847 237.150  1.00 20.00    -0.360 OA
ATOM     38  H10 DXT  3265       2.418  32.421 236.357  1.00  0.00     0.217 HD
ENDBRANCH  15  37
TORSDOF 6
ENDMDL
MODEL 7
REMARK VINA RESULT:      -6.1      3.551      6.195
REMARK  6 active torsions:
REMARK  status: ('A' for Active; 'I' for Inactive)
REMARK    1  A    between atoms: C2_3  and  C21_5 
REMARK       I    between atoms: C21_5  and  N21_6 
REMARK    2  A    between atoms: C3_9  and  O3_10 
REMARK    3  A    between atoms: C4_12  and  N4_13 
REMARK    4  A    between atoms: C5_17  and  O5_18 
REMARK    5  A    between atoms: C10_27  and  O10_28 
REMARK    6  A    between atoms: C4B_36  and  O13_37 
ROOT
HETATM    1  C1  DXT  3265       0.201  36.955 232.199  1.00 20.00     0.210 C 
HETATM    2  O1  DXT  3265       1.450  36.935 231.944  1.00 20.00    -0.288 OA
HETATM    3  C2  DXT  3265      -0.386  37.239 233.450  1.00 20.00     0.112 C 
HETATM    4  C3  DXT  3265      -1.689  36.980 233.645  1.00 20.00     0.096 C 
HETATM    5  C4  DXT  3265      -2.537  36.115 232.707  1.00 20.00     0.289 C 
HETATM    6  C4A DXT  3265      -1.877  35.911 231.364  1.00 20.00     0.105 C 
HETATM    7  C5  DXT  3265      -1.284  34.509 231.236  1.00 20.00     0.138 C 
HETATM    8  C5A DXT  3265      -0.691  34.150 229.899  1.00 20.00     0.064 C 
HETATM    9  C6  DXT  3265       0.224  32.941 229.878  1.00 20.00     0.027 C 
HETATM   10  C61 DXT  3265      -0.402  31.748 230.568  1.00 20.00     0.016 C 
HETATM   11  C6A DXT  3265       0.567  32.701 228.458  1.00 20.00    -0.037 A 
HETATM   12  C7  DXT  3265       0.804  31.428 228.007  1.00 20.00     0.009 A 
HETATM   13  C8  DXT  3265       1.128  31.227 226.682  1.00 20.00     0.003 A 
HETATM   14  C9  DXT  3265       1.242  32.256 225.771  1.00 20.00     0.037 A 
HETATM   15  C10 DXT  3265       1.035  33.537 226.187  1.00 20.00     0.080 A 
HETATM   16  C6B DXT  3265       0.667  33.743 227.544  1.00 20.00     0.054 A 
HETATM   17  C11 DXT  3265       0.352  35.131 227.947  1.00 20.00     0.196 C 
HETATM   18  O11 DXT  3265       0.698  36.049 227.156  1.00 20.00    -0.287 OA
HETATM   19  C5B DXT  3265      -0.169  35.348 229.159  1.00 20.00     0.050 C 
HETATM   20  C12 DXT  3265      -0.233  36.638 229.694  1.00 20.00     0.202 C 
HETATM   21  O12 DXT  3265       0.128  37.651 229.009  1.00 20.00    -0.289 OA
HETATM   22  C4B DXT  3265      -0.788  36.911 231.066  1.00 20.00     0.196 C 
ENDROOT
BRANCH   3  23
HETATM   23  C21 DXT  3265       0.450  37.413 234.597  1.00 20.00     0.255 C 
HETATM   24  O21 DXT  3265       1.133  36.458 235.069  1.00 20.00    -0.268 OA
HETATM   25  N21 DXT  3265       0.560  38.576 235.241  1.00 20.00    -0.366 N 
ATOM     26 2H21 DXT  3265       0.009  39.346 234.861  1.00  0.00     0.159 HD
ATOM     27 1H21 DXT  3265       1.156  38.700 236.059  1.00  0.00     0.159 HD
ENDBRANCH   3  23
BRANCH   4  28
HETATM   28  O3  DXT  3265      -2.375  37.368 234.709  1.00 20.00    -0.362 OA
ATOM     29  H3  DXT  3265      -3.324  37.393 234.754  1.00  0.00     0.217 HD
ENDBRANCH   4  28
BRANCH  22  30
HETATM   30  O13 DXT  3265      -1.404  38.243 230.999  1.00 20.00    -0.373 OA
ATOM     31  H13 DXT  3265      -1.103  38.638 230.190  1.00  0.00     0.211 HD
ENDBRANCH  22  30
BRANCH   5  32
HETATM   32  N4  DXT  3265      -3.985  36.644 232.708  1.00 20.00     0.091 N 
HETATM   33  C41 DXT  3265      -4.979  35.662 233.311  1.00 20.00     0.310 C 
HETATM   34  C42 DXT  3265      -4.606  37.019 231.372  1.00 20.00     0.310 C 
ENDBRANCH   5  32
BRANCH   7  35
HETATM   35  O5  DXT  3265      -2.037  33.516 231.847  1.00 20.00    -0.394 OA
ATOM     36  H5  DXT  3265      -2.810  33.836 232.298  1.00  0.00     0.210 HD
ENDBRANCH   7  35
BRANCH  15  37
HETATM   37  O10 DXT  3265       1.157  34.532 225.324  1.00 20.00    -0.360 OA
ATOM     38  H10 DXT  3265       1.769  35.246 225.451  1.00  0.00     0.217 HD
ENDBRANCH  15  37
TORSDOF 6
ENDMDL
MODEL 8
REMARK VINA RESULT:      -6.1      3.758      6.774
REMARK  6 active torsions:
REMARK  status: ('A' for Active; 'I' for Inactive)
REMARK    1  A    between atoms: C2_3  and  C21_5 
REMARK       I    between atoms: C21_5  and  N21_6 
REMARK    2  A    between atoms: C3_9  and  O3_10 
REMARK    3  A    between atoms: C4_12  and  N4_13 
REMARK    4  A    between atoms: C5_17  and  O5_18 
REMARK    5  A    between atoms: C10_27  and  O10_28 
REMARK    6  A    between atoms: C4B_36  and  O13_37 
ROOT
HETATM    1  C1  DXT  3265       1.201  36.594 236.230  1.00 20.00     0.210 C 
HETATM    2  O1  DXT  3265       1.461  37.019 235.056  1.00 20.00    -0.288 OA
HETATM    3  C2  DXT  3265       1.815  37.029 237.424  1.00 20.00     0.112 C 
HETATM    4  C3  DXT  3265       1.635  36.328 238.555  1.00 20.00     0.096 C 
HETATM    5  C4  DXT  3265       1.053  34.911 238.597  1.00 20.00     0.289 C 
HETATM    6  C4A DXT  3265       0.354  34.541 237.311  1.00 20.00     0.105 C 
HETATM    7  C5  DXT  3265       1.194  33.585 236.468  1.00 20.00     0.138 C 
HETATM    8  C5A DXT  3265       0.555  33.059 235.209  1.00 20.00     0.064 C 
HETATM    9  C6  DXT  3265       1.494  32.439 234.194  1.00 20.00     0.027 C 
HETATM   10  C61 DXT  3265       2.425  31.429 234.829  1.00 20.00     0.016 C 
HETATM   11  C6A DXT  3265       0.639  31.876 233.123  1.00 20.00    -0.037 A 
HETATM   12  C7  DXT  3265       1.035  30.759 232.435  1.00 20.00     0.009 A 
HETATM   13  C8  DXT  3265       0.227  30.254 231.438  1.00 20.00     0.003 A 
HETATM   14  C9  DXT  3265      -0.974  30.830 231.080  1.00 20.00     0.037 A 
HETATM   15  C10 DXT  3265      -1.390  31.954 231.728  1.00 20.00     0.080 A 
HETATM   16  C6B DXT  3265      -0.576  32.455 232.778  1.00 20.00     0.054 A 
HETATM   17  C11 DXT  3265      -1.097  33.617 233.530  1.00 20.00     0.196 C 
HETATM   18  O11 DXT  3265      -2.065  34.243 233.019  1.00 20.00    -0.287 OA
HETATM   19  C5B DXT  3265      -0.455  34.011 234.635  1.00 20.00     0.050 C 
HETATM   20  C12 DXT  3265      -0.733  35.246 235.228  1.00 20.00     0.202 C 
HETATM   21  O12 DXT  3265      -1.662  35.995 234.778  1.00 20.00    -0.289 OA
HETATM   22  C4B DXT  3265      -0.008  35.728 236.455  1.00 20.00     0.196 C 
ENDROOT
BRANCH   3  23
HETATM   23  C21 DXT  3265       2.913  37.942 237.358  1.00 20.00     0.255 C 
HETATM   24  O21 DXT  3265       2.886  39.054 237.961  1.00 20.00    -0.268 OA
HETATM   25  N21 DXT  3265       4.023  37.690 236.662  1.00 20.00    -0.366 N 
ATOM     26 2H21 DXT  3265       4.045  36.793 236.175  1.00  0.00     0.159 HD
ATOM     27 1H21 DXT  3265       4.806  38.341 236.615  1.00  0.00     0.159 HD
ENDBRANCH   3  23
BRANCH   4  28
HETATM   28  O3  DXT  3265       2.014  36.740 239.755  1.00 20.00    -0.362 OA
ATOM     29  H3  DXT  3265       2.655  36.293 240.295  1.00  0.00     0.217 HD
ENDBRANCH   4  28
BRANCH  22  30
HETATM   30  O13 DXT  3265      -0.972  36.547 237.202  1.00 20.00    -0.373 OA
ATOM     31  H13 DXT  3265      -0.490  36.949 237.915  1.00  0.00     0.211 HD
ENDBRANCH  22  30
BRANCH   5  32
HETATM   32  N4  DXT  3265       0.262  34.733 239.908  1.00 20.00     0.091 N 
HETATM   33  C41 DXT  3265       1.006  33.906 240.947  1.00 20.00     0.310 C 
HETATM   34  C42 DXT  3265      -1.106  34.075 239.828  1.00 20.00     0.310 C 
ENDBRANCH   5  32
BRANCH   7  35
HETATM   35  O5  DXT  3265       1.915  32.659 237.208  1.00 20.00    -0.394 OA
ATOM     36  H5  DXT  3265       2.662  33.025 237.668  1.00  0.00     0.210 HD
ENDBRANCH   7  35
BRANCH  15  37
HETATM   37  O10 DXT  3265      -2.534  32.522 231.380  1.00 20.00    -0.360 OA
ATOM     38  H10 DXT  3265      -3.007  33.110 231.955  1.00  0.00     0.217 HD
ENDBRANCH  15  37
TORSDOF 6
ENDMDL
MODEL 9
REMARK VINA RESULT:      -6.0      2.765      7.028
REMARK  6 active torsions:
REMARK  status: ('A' for Active; 'I' for Inactive)
REMARK    1  A    between atoms: C2_3  and  C21_5 
REMARK       I    between atoms: C21_5  and  N21_6 
REMARK    2  A    between atoms: C3_9  and  O3_10 
REMARK    3  A    between atoms: C4_12  and  N4_13 
REMARK    4  A    between atoms: C5_17  and  O5_18 
REMARK    5  A    between atoms: C10_27  and  O10_28 
REMARK    6  A    between atoms: C4B_36  and  O13_37 
ROOT
HETATM    1  C1  DXT  3265       1.307  37.185 236.002  1.00 20.00     0.210 C 
HETATM    2  O1  DXT  3265       1.633  38.363 235.638  1.00 20.00    -0.288 OA
HETATM    3  C2  DXT  3265       2.089  36.315 236.792  1.00 20.00     0.112 C 
HETATM    4  C3  DXT  3265       1.744  35.021 236.890  1.00 20.00     0.096 C 
HETATM    5  C4  DXT  3265       0.732  34.334 235.968  1.00 20.00     0.289 C 
HETATM    6  C4A DXT  3265      -0.113  35.327 235.207  1.00 20.00     0.105 C 
HETATM    7  C5  DXT  3265       0.323  35.436 233.748  1.00 20.00     0.138 C 
HETATM    8  C5A DXT  3265      -0.515  36.317 232.859  1.00 20.00     0.064 C 
HETATM    9  C6  DXT  3265       0.116  36.732 231.545  1.00 20.00     0.027 C 
HETATM   10  C61 DXT  3265       0.694  35.548 230.798  1.00 20.00     0.016 C 
HETATM   11  C6A DXT  3265      -0.929  37.463 230.792  1.00 20.00    -0.037 A 
HETATM   12  C7  DXT  3265      -0.957  37.418 229.422  1.00 20.00     0.009 A 
HETATM   13  C8  DXT  3265      -1.935  38.111 228.740  1.00 20.00     0.003 A 
HETATM   14  C9  DXT  3265      -2.896  38.872 229.371  1.00 20.00     0.037 A 
HETATM   15  C10 DXT  3265      -2.887  38.959 230.731  1.00 20.00     0.080 A 
HETATM   16  C6B DXT  3265      -1.902  38.217 231.437  1.00 20.00     0.054 A 
HETATM   17  C11 DXT  3265      -1.974  38.248 232.914  1.00 20.00     0.196 C 
HETATM   18  O11 DXT  3265      -2.706  39.134 233.433  1.00 20.00    -0.287 OA
HETATM   19  C5B DXT  3265      -1.184  37.429 233.616  1.00 20.00     0.050 C 
HETATM   20  C12 DXT  3265      -1.010  37.601 234.992  1.00 20.00     0.202 C 
HETATM   21  O12 DXT  3265      -1.663  38.492 235.629  1.00 20.00    -0.289 OA
HETATM   22  C4B DXT  3265      -0.107  36.712 235.804  1.00 20.00     0.196 C 
ENDROOT
BRANCH   3  23
HETATM   23  C21 DXT  3265       3.421  36.693 237.147  1.00 20.00     0.255 C 
HETATM   24  O21 DXT  3265       3.937  36.343 238.247  1.00 20.00    -0.268 OA
HETATM   25  N21 DXT  3265       4.197  37.435 236.355  1.00 20.00    -0.366 N 
ATOM     26 2H21 DXT  3265       3.781  37.717 235.467  1.00  0.00     0.159 HD
ATOM     27 1H21 DXT  3265       5.148  37.704 236.608  1.00  0.00     0.159 HD
ENDBRANCH   3  23
BRANCH   4  28
HETATM   28  O3  DXT  3265       2.297  34.166 237.737  1.00 20.00    -0.362 OA
ATOM     29  H3  DXT  3265       3.088  34.342 238.235  1.00  0.00     0.217 HD
ENDBRANCH   4  28
BRANCH  22  30
HETATM   30  O13 DXT  3265      -0.710  36.631 237.141  1.00 20.00    -0.373 OA
ATOM     31  H13 DXT  3265      -1.071  35.756 237.221  1.00  0.00     0.211 HD
ENDBRANCH  22  30
BRANCH   5  32
HETATM   32  N4  DXT  3265      -0.007  33.240 236.762  1.00 20.00     0.091 N 
HETATM   33  C41 DXT  3265       0.244  31.839 236.223  1.00 20.00     0.310 C 
HETATM   34  C42 DXT  3265      -1.522  33.329 236.854  1.00 20.00     0.310 C 
ENDBRANCH   5  32
BRANCH   7  35
HETATM   35  O5  DXT  3265       0.735  34.235 233.187  1.00 20.00    -0.394 OA
ATOM     36  H5  DXT  3265       1.640  34.232 232.896  1.00  0.00     0.210 HD
ENDBRANCH   7  35
BRANCH  15  37
HETATM   37  O10 DXT  3265      -3.796  39.699 231.344  1.00 20.00    -0.360 OA
ATOM     38  H10 DXT  3265      -3.568  40.458 231.866  1.00  0.00     0.217 HD
ENDBRANCH  15  37
TORSDOF 6
ENDMDL
