MODEL 1
REMARK VINA RESULT:      -7.3      0.000      0.000
REMARK  5 active torsions:
REMARK  status: ('A' for Active; 'I' for Inactive)
REMARK    1  A    between atoms: C9_9  and  C20_20 
REMARK    2  A    between atoms: C10_10  and  C20_20 
REMARK    3  A    between atoms: C10_10  and  O2_26 
REMARK    4  A    between atoms: C13_13  and  C19_19 
REMARK       I    between atoms: C13_13  and  N1_22 
REMARK    5  A    between atoms: C20_20  and  N1_22 
ROOT
ATOM      1  C2  UNK     1      -4.800  40.812 228.266  1.00  0.00     0.310 C 
ATOM      2  C3  UNK     1      -3.292  33.754 230.886  1.00  0.00     0.155 C 
ATOM      3  C4  UNK     1      -1.143  40.507 230.067  1.00  0.00    -0.001 C 
ATOM      4  C5  UNK     1       0.288  36.503 230.777  1.00  0.00     0.003 A 
ATOM      5  C6  UNK     1      -0.050  37.813 230.426  1.00  0.00     0.013 A 
ATOM      6  C7  UNK     1      -0.671  35.498 230.868  1.00  0.00     0.030 A 
ATOM      7  C8  UNK     1      -4.057  35.996 230.259  1.00  0.00     0.099 A 
ATOM      8  C11 UNK     1      -4.104  38.446 229.674  1.00  0.00     0.081 C 
ATOM      9  C12 UNK     1      -2.650  41.681 228.705  1.00  0.00     0.290 C 
ATOM     10  C14 UNK     1      -1.887  39.353 229.795  1.00  0.00    -0.017 C 
ATOM     11  C15 UNK     1      -3.581  37.210 230.048  1.00  0.00    -0.027 A 
ATOM     12  C16 UNK     1      -1.393  38.088 230.167  1.00  0.00    -0.015 A 
ATOM     13  C17 UNK     1      -1.942  35.799 230.613  1.00  0.00     0.045 A 
ATOM     14  C18 UNK     1      -2.262  37.073 230.273  1.00  0.00     0.009 A 
ATOM     15  C19 UNK     1      -1.505  41.814 229.689  1.00  0.00     0.129 C 
ATOM     16  C21 UNK     1      -3.070  39.387 229.053  1.00  0.00     0.260 C 
ATOM     17  N2  UNK     1      -3.656  40.722 229.138  1.00  0.00     0.094 N 
ATOM     18  N3  UNK     1      -3.103  35.152 230.592  1.00  0.00    -0.360 N 
ENDROOT
BRANCH  15  19
ATOM     19  C13 UNK     1      -0.354  42.602 229.027  1.00  0.00     0.227 C 
ATOM     20  N1  UNK     1       0.909  42.785 229.691  1.00  0.00    -0.354 N 
ATOM     21  H26 UNK     1       1.060  42.404 230.602  1.00  0.00     0.163 HD
ATOM     22  O1  UNK     1      -0.526  43.084 227.923  1.00  0.00    -0.273 OA
BRANCH  20  23
ATOM     23  C20 UNK     1       1.947  43.521 229.030  1.00  0.00     0.107 C 
BRANCH  23  24
ATOM     24  C9  UNK     1       2.876  44.172 230.044  1.00  0.00     0.023 C 
ATOM     25  C1  UNK     1       4.256  43.603 229.913  1.00  0.00     0.007 C 
ENDBRANCH  23  24
BRANCH  23  26
ATOM     26  C10 UNK     1       2.758  42.605 228.136  1.00  0.00     0.189 C 
BRANCH  26  27
ATOM     27  O2  UNK     1       2.388  42.828 226.770  1.00  0.00    -0.399 OA
ATOM     28  H27 UNK     1       1.893  43.636 226.703  1.00  0.00     0.209 HD
ENDBRANCH  26  27
ENDBRANCH  23  26
ENDBRANCH  20  23
ENDBRANCH  15  19
TORSDOF 5
ENDMDL
MODEL 2
REMARK VINA RESULT:      -6.9      6.155      8.421
REMARK  5 active torsions:
REMARK  status: ('A' for Active; 'I' for Inactive)
REMARK    1  A    between atoms: C9_9  and  C20_20 
REMARK    2  A    between atoms: C10_10  and  C20_20 
REMARK    3  A    between atoms: C10_10  and  O2_26 
REMARK    4  A    between atoms: C13_13  and  C19_19 
REMARK       I    between atoms: C13_13  and  N1_22 
REMARK    5  A    between atoms: C20_20  and  N1_22 
ROOT
ATOM      1  C2  UNK     1      -0.622  32.053 236.428  1.00  0.00     0.310 C 
ATOM      2  C3  UNK     1      -0.744  33.728 228.936  1.00  0.00     0.155 C 
ATOM      3  C4  UNK     1       1.479  35.434 235.496  1.00  0.00    -0.001 C 
ATOM      4  C5  UNK     1       0.797  37.060 231.562  1.00  0.00     0.003 A 
ATOM      5  C6  UNK     1       0.934  36.673 232.898  1.00  0.00     0.013 A 
ATOM      6  C7  UNK     1       0.337  36.180 230.588  1.00  0.00     0.030 A 
ATOM      7  C8  UNK     1      -0.565  32.885 231.230  1.00  0.00     0.099 A 
ATOM      8  C11 UNK     1      -0.152  32.728 233.709  1.00  0.00     0.081 C 
ATOM      9  C12 UNK     1       0.457  34.045 237.088  1.00  0.00     0.290 C 
ATOM     10  C14 UNK     1       0.664  34.829 234.532  1.00  0.00    -0.017 C 
ATOM     11  C15 UNK     1      -0.209  33.289 232.436  1.00  0.00    -0.027 A 
ATOM     12  C16 UNK     1       0.590  35.362 233.231  1.00  0.00    -0.015 A 
ATOM     13  C17 UNK     1       0.018  34.938 230.944  1.00  0.00     0.045 A 
ATOM     14  C18 UNK     1       0.153  34.569 232.243  1.00  0.00     0.009 A 
ATOM     15  C19 UNK     1       1.585  35.027 236.840  1.00  0.00     0.129 C 
ATOM     16  C21 UNK     1      -0.185  33.762 234.837  1.00  0.00     0.260 C 
ATOM     17  N2  UNK     1       0.317  33.067 236.019  1.00  0.00     0.094 N 
ATOM     18  N3  UNK     1      -0.438  33.846 230.339  1.00  0.00    -0.360 N 
ENDROOT
BRANCH  15  19
ATOM     19  C13 UNK     1       1.474  36.194 237.844  1.00  0.00     0.227 C 
ATOM     20  N1  UNK     1       1.759  37.549 237.455  1.00  0.00    -0.354 N 
ATOM     21  H26 UNK     1       2.039  37.757 236.518  1.00  0.00     0.163 HD
ATOM     22  O1  UNK     1       1.148  35.957 238.992  1.00  0.00    -0.273 OA
BRANCH  20  23
ATOM     23  C20 UNK     1       1.636  38.598 238.425  1.00  0.00     0.107 C 
BRANCH  23  24
ATOM     24  C9  UNK     1       2.993  39.216 238.725  1.00  0.00     0.023 C 
ATOM     25  C1  UNK     1       3.587  38.577 239.944  1.00  0.00     0.007 C 
ENDBRANCH  23  24
BRANCH  23  26
ATOM     26  C10 UNK     1       0.702  39.679 237.920  1.00  0.00     0.189 C 
BRANCH  26  27
ATOM     27  O2  UNK     1       1.009  39.967 236.550  1.00  0.00    -0.399 OA
ATOM     28  H27 UNK     1       1.565  39.281 236.199  1.00  0.00     0.209 HD
ENDBRANCH  26  27
ENDBRANCH  23  26
ENDBRANCH  20  23
ENDBRANCH  15  19
TORSDOF 5
ENDMDL
MODEL 3
REMARK VINA RESULT:      -6.6      1.706      2.158
REMARK  5 active torsions:
REMARK  status: ('A' for Active; 'I' for Inactive)
REMARK    1  A    between atoms: C9_9  and  C20_20 
REMARK    2  A    between atoms: C10_10  and  C20_20 
REMARK    3  A    between atoms: C10_10  and  O2_26 
REMARK    4  A    between atoms: C13_13  and  C19_19 
REMARK       I    between atoms: C13_13  and  N1_22 
REMARK    5  A    between atoms: C20_20  and  N1_22 
ROOT
ATOM      1  C2  UNK     1      -4.248  41.612 226.739  1.00  0.00     0.310 C 
ATOM      2  C3  UNK     1      -5.266  34.797 230.124  1.00  0.00     0.155 C 
ATOM      3  C4  UNK     1      -1.978  41.127 230.104  1.00  0.00    -0.001 C 
ATOM      4  C5  UNK     1      -1.689  37.104 231.626  1.00  0.00     0.003 A 
ATOM      5  C6  UNK     1      -1.615  38.392 231.088  1.00  0.00     0.013 A 
ATOM      6  C7  UNK     1      -2.718  36.229 231.292  1.00  0.00     0.030 A 
ATOM      7  C8  UNK     1      -5.288  37.018 229.088  1.00  0.00     0.099 A 
ATOM      8  C11 UNK     1      -4.675  39.370 228.429  1.00  0.00     0.081 C 
ATOM      9  C12 UNK     1      -2.459  42.287 228.121  1.00  0.00     0.290 C 
ATOM     10  C14 UNK     1      -2.671  40.037 229.564  1.00  0.00    -0.017 C 
ATOM     11  C15 UNK     1      -4.589  38.138 229.073  1.00  0.00    -0.027 A 
ATOM     12  C16 UNK     1      -2.614  38.779 230.194  1.00  0.00    -0.015 A 
ATOM     13  C17 UNK     1      -3.653  36.634 230.436  1.00  0.00     0.045 A 
ATOM     14  C18 UNK     1      -3.574  37.886 229.917  1.00  0.00     0.009 A 
ATOM     15  C19 UNK     1      -1.911  42.411 229.530  1.00  0.00     0.129 C 
ATOM     16  C21 UNK     1      -3.340  40.111 228.340  1.00  0.00     0.260 C 
ATOM     17  N2  UNK     1      -3.683  41.503 228.060  1.00  0.00     0.094 N 
ATOM     18  N3  UNK     1      -4.749  36.120 229.887  1.00  0.00    -0.360 N 
ENDROOT
BRANCH  15  19
ATOM     19  C13 UNK     1      -0.479  42.983 229.471  1.00  0.00     0.227 C 
ATOM     20  N1  UNK     1      -0.181  44.186 228.740  1.00  0.00    -0.354 N 
ATOM     21  H26 UNK     1      -0.905  44.672 228.251  1.00  0.00     0.163 HD
ATOM     22  O1  UNK     1       0.417  42.396 230.049  1.00  0.00    -0.273 OA
BRANCH  20  23
ATOM     23  C20 UNK     1       1.165  44.679 228.721  1.00  0.00     0.107 C 
BRANCH  23  24
ATOM     24  C9  UNK     1       1.896  44.202 227.475  1.00  0.00     0.023 C 
ATOM     25  C1  UNK     1       2.732  43.002 227.800  1.00  0.00     0.007 C 
ENDBRANCH  23  24
BRANCH  23  26
ATOM     26  C10 UNK     1       1.174  46.194 228.749  1.00  0.00     0.189 C 
BRANCH  26  27
ATOM     27  O2  UNK     1       0.490  46.648 229.924  1.00  0.00    -0.399 OA
ATOM     28  H27 UNK     1       0.727  47.551 230.100  1.00  0.00     0.209 HD
ENDBRANCH  26  27
ENDBRANCH  23  26
ENDBRANCH  20  23
ENDBRANCH  15  19
TORSDOF 5
ENDMDL
MODEL 4
REMARK VINA RESULT:      -6.4      5.153      6.890
REMARK  5 active torsions:
REMARK  status: ('A' for Active; 'I' for Inactive)
REMARK    1  A    between atoms: C9_9  and  C20_20 
REMARK    2  A    between atoms: C10_10  and  C20_20 
REMARK    3  A    between atoms: C10_10  and  O2_26 
REMARK    4  A    between atoms: C13_13  and  C19_19 
REMARK       I    between atoms: C13_13  and  N1_22 
REMARK    5  A    between atoms: C20_20  and  N1_22 
ROOT
ATOM      1  C2  UNK     1      -4.203  36.014 234.964  1.00  0.00     0.310 C 
ATOM      2  C3  UNK     1       1.791  35.533 239.738  1.00  0.00     0.155 C 
ATOM      3  C4  UNK     1      -1.146  38.542 233.975  1.00  0.00    -0.001 C 
ATOM      4  C5  UNK     1       2.627  37.800 235.925  1.00  0.00     0.003 A 
ATOM      5  C6  UNK     1       1.481  37.985 235.146  1.00  0.00     0.013 A 
ATOM      6  C7  UNK     1       2.585  37.125 237.141  1.00  0.00     0.030 A 
ATOM      7  C8  UNK     1      -0.311  35.767 238.500  1.00  0.00     0.099 A 
ATOM      8  C11 UNK     1      -2.013  36.356 236.740  1.00  0.00     0.081 C 
ATOM      9  C12 UNK     1      -3.146  37.448 233.417  1.00  0.00     0.290 C 
ATOM     10  C14 UNK     1      -0.955  37.563 234.958  1.00  0.00    -0.017 C 
ATOM     11  C15 UNK     1      -0.777  36.283 237.377  1.00  0.00    -0.027 A 
ATOM     12  C16 UNK     1       0.279  37.466 235.630  1.00  0.00    -0.015 A 
ATOM     13  C17 UNK     1       1.420  36.644 237.569  1.00  0.00     0.045 A 
ATOM     14  C18 UNK     1       0.312  36.827 236.807  1.00  0.00     0.009 A 
ATOM     15  C19 UNK     1      -2.310  38.694 233.198  1.00  0.00     0.129 C 
ATOM     16  C21 UNK     1      -1.912  36.583 235.230  1.00  0.00     0.260 C 
ATOM     17  N2  UNK     1      -3.228  37.065 234.819  1.00  0.00     0.094 N 
ATOM     18  N3  UNK     1       0.984  35.971 238.628  1.00  0.00    -0.360 N 
ENDROOT
BRANCH  15  19
ATOM     19  C13 UNK     1      -2.023  38.855 231.690  1.00  0.00     0.227 C 
ATOM     20  N1  UNK     1      -2.578  39.945 230.933  1.00  0.00    -0.354 N 
ATOM     21  H26 UNK     1      -3.167  40.620 231.377  1.00  0.00     0.163 HD
ATOM     22  O1  UNK     1      -1.320  38.035 231.130  1.00  0.00    -0.273 OA
BRANCH  20  23
ATOM     23  C20 UNK     1      -2.277  40.053 229.535  1.00  0.00     0.107 C 
BRANCH  23  24
ATOM     24  C9  UNK     1      -3.470  39.627 228.692  1.00  0.00     0.023 C 
ATOM     25  C1  UNK     1      -4.473  40.738 228.629  1.00  0.00     0.007 C 
ENDBRANCH  23  24
BRANCH  23  26
ATOM     26  C10 UNK     1      -1.907  41.480 229.182  1.00  0.00     0.189 C 
BRANCH  26  27
ATOM     27  O2  UNK     1      -1.519  42.176 230.373  1.00  0.00    -0.399 OA
ATOM     28  H27 UNK     1      -1.551  41.581 231.113  1.00  0.00     0.209 HD
ENDBRANCH  26  27
ENDBRANCH  23  26
ENDBRANCH  20  23
ENDBRANCH  15  19
TORSDOF 5
ENDMDL
MODEL 5
REMARK VINA RESULT:      -6.3      3.848      6.119
REMARK  5 active torsions:
REMARK  status: ('A' for Active; 'I' for Inactive)
REMARK    1  A    between atoms: C9_9  and  C20_20 
REMARK    2  A    between atoms: C10_10  and  C20_20 
REMARK    3  A    between atoms: C10_10  and  O2_26 
REMARK    4  A    between atoms: C13_13  and  C19_19 
REMARK       I    between atoms: C13_13  and  N1_22 
REMARK    5  A    between atoms: C20_20  and  N1_22 
ROOT
ATOM      1  C2  UNK     1      -0.991  33.941 230.942  1.00  0.00     0.310 C 
ATOM      2  C3  UNK     1       2.778  34.096 237.629  1.00  0.00     0.155 C 
ATOM      3  C4  UNK     1      -0.690  37.692 232.537  1.00  0.00    -0.001 C 
ATOM      4  C5  UNK     1       2.134  38.155 235.762  1.00  0.00     0.003 A 
ATOM      5  C6  UNK     1       1.329  38.101 234.621  1.00  0.00     0.013 A 
ATOM      6  C7  UNK     1       2.454  37.011 236.488  1.00  0.00     0.030 A 
ATOM      7  C8  UNK     1       1.355  33.821 235.653  1.00  0.00     0.099 A 
ATOM      8  C11 UNK     1       0.001  34.286 233.580  1.00  0.00     0.081 C 
ATOM      9  C12 UNK     1      -1.152  36.284 230.718  1.00  0.00     0.290 C 
ATOM     10  C14 UNK     1       0.038  36.634 233.095  1.00  0.00    -0.017 C 
ATOM     11  C15 UNK     1       0.802  34.538 234.691  1.00  0.00    -0.027 A 
ATOM     12  C16 UNK     1       0.850  36.851 234.225  1.00  0.00    -0.015 A 
ATOM     13  C17 UNK     1       1.979  35.837 236.078  1.00  0.00     0.045 A 
ATOM     14  C18 UNK     1       1.198  35.793 234.969  1.00  0.00     0.009 A 
ATOM     15  C19 UNK     1      -1.483  37.609 231.377  1.00  0.00     0.129 C 
ATOM     16  C21 UNK     1       0.086  35.369 232.504  1.00  0.00     0.260 C 
ATOM     17  N2  UNK     1      -1.096  35.182 231.666  1.00  0.00     0.094 N 
ATOM     18  N3  UNK     1       2.053  34.572 236.479  1.00  0.00    -0.360 N 
ENDROOT
BRANCH  15  19
ATOM     19  C13 UNK     1      -1.226  38.754 230.375  1.00  0.00     0.227 C 
ATOM     20  N1  UNK     1      -1.995  39.969 230.412  1.00  0.00    -0.354 N 
ATOM     21  H26 UNK     1      -2.717  40.090 231.092  1.00  0.00     0.163 HD
ATOM     22  O1  UNK     1      -0.360  38.619 229.530  1.00  0.00    -0.273 OA
BRANCH  20  23
ATOM     23  C20 UNK     1      -1.713  41.006 229.461  1.00  0.00     0.107 C 
BRANCH  23  24
ATOM     24  C9  UNK     1      -3.003  41.587 228.900  1.00  0.00     0.023 C 
ATOM     25  C1  UNK     1      -4.126  40.614 229.087  1.00  0.00     0.007 C 
ENDBRANCH  23  24
BRANCH  23  26
ATOM     26  C10 UNK     1      -0.913  42.116 230.110  1.00  0.00     0.189 C 
BRANCH  26  27
ATOM     27  O2  UNK     1       0.301  42.316 229.375  1.00  0.00    -0.399 OA
ATOM     28  H27 UNK     1       1.046  42.131 229.934  1.00  0.00     0.209 HD
ENDBRANCH  26  27
ENDBRANCH  23  26
ENDBRANCH  20  23
ENDBRANCH  15  19
TORSDOF 5
ENDMDL
MODEL 6
REMARK VINA RESULT:      -6.3      7.158      9.148
REMARK  5 active torsions:
REMARK  status: ('A' for Active; 'I' for Inactive)
REMARK    1  A    between atoms: C9_9  and  C20_20 
REMARK    2  A    between atoms: C10_10  and  C20_20 
REMARK    3  A    between atoms: C10_10  and  O2_26 
REMARK    4  A    between atoms: C13_13  and  C19_19 
REMARK       I    between atoms: C13_13  and  N1_22 
REMARK    5  A    between atoms: C20_20  and  N1_22 
ROOT
ATOM      1  C2  UNK     1       0.337  39.390 238.369  1.00  0.00     0.310 C 
ATOM      2  C3  UNK     1       3.862  33.130 241.078  1.00  0.00     0.155 C 
ATOM      3  C4  UNK     1       1.592  36.845 235.427  1.00  0.00    -0.001 C 
ATOM      4  C5  UNK     1       2.749  32.895 236.709  1.00  0.00     0.003 A 
ATOM      5  C6  UNK     1       2.236  34.099 236.219  1.00  0.00     0.013 A 
ATOM      6  C7  UNK     1       3.153  32.756 238.034  1.00  0.00     0.030 A 
ATOM      7  C8  UNK     1       2.984  35.311 240.385  1.00  0.00     0.099 A 
ATOM      8  C11 UNK     1       2.006  37.185 239.016  1.00  0.00     0.081 C 
ATOM      9  C12 UNK     1       0.293  38.671 236.123  1.00  0.00     0.290 C 
ATOM     10  C14 UNK     1       1.635  36.441 236.767  1.00  0.00    -0.017 C 
ATOM     11  C15 UNK     1       2.501  35.918 239.316  1.00  0.00    -0.027 A 
ATOM     12  C16 UNK     1       2.138  35.171 237.108  1.00  0.00    -0.015 A 
ATOM     13  C17 UNK     1       3.045  33.801 238.851  1.00  0.00     0.045 A 
ATOM     14  C18 UNK     1       2.545  34.966 238.368  1.00  0.00     0.009 A 
ATOM     15  C19 UNK     1       1.056  38.061 234.963  1.00  0.00     0.129 C 
ATOM     16  C21 UNK     1       1.085  37.210 237.795  1.00  0.00     0.260 C 
ATOM     17  N2  UNK     1       1.029  38.608 237.377  1.00  0.00     0.094 N 
ATOM     18  N3  UNK     1       3.309  34.061 240.127  1.00  0.00    -0.360 N 
ENDROOT
BRANCH  15  19
ATOM     19  C13 UNK     1       0.104  37.893 233.760  1.00  0.00     0.227 C 
ATOM     20  N1  UNK     1      -1.081  38.696 233.623  1.00  0.00    -0.354 N 
ATOM     21  H26 UNK     1      -1.311  39.380 234.314  1.00  0.00     0.163 HD
ATOM     22  O1  UNK     1       0.360  37.054 232.916  1.00  0.00    -0.273 OA
BRANCH  20  23
ATOM     23  C20 UNK     1      -1.930  38.504 232.483  1.00  0.00     0.107 C 
BRANCH  23  24
ATOM     24  C9  UNK     1      -3.396  38.589 232.882  1.00  0.00     0.023 C 
ATOM     25  C1  UNK     1      -3.681  37.619 233.988  1.00  0.00     0.007 C 
ENDBRANCH  23  24
BRANCH  23  26
ATOM     26  C10 UNK     1      -1.645  39.553 231.427  1.00  0.00     0.189 C 
BRANCH  26  27
ATOM     27  O2  UNK     1      -2.884  40.023 230.881  1.00  0.00    -0.399 OA
ATOM     28  H27 UNK     1      -3.137  39.473 230.149  1.00  0.00     0.209 HD
ENDBRANCH  26  27
ENDBRANCH  23  26
ENDBRANCH  20  23
ENDBRANCH  15  19
TORSDOF 5
ENDMDL
MODEL 7
REMARK VINA RESULT:      -6.3      8.075     10.406
REMARK  5 active torsions:
REMARK  status: ('A' for Active; 'I' for Inactive)
REMARK    1  A    between atoms: C9_9  and  C20_20 
REMARK    2  A    between atoms: C10_10  and  C20_20 
REMARK    3  A    between atoms: C10_10  and  O2_26 
REMARK    4  A    between atoms: C13_13  and  C19_19 
REMARK       I    between atoms: C13_13  and  N1_22 
REMARK    5  A    between atoms: C20_20  and  N1_22 
ROOT
ATOM      1  C2  UNK     1       2.404  36.992 240.179  1.00  0.00     0.310 C 
ATOM      2  C3  UNK     1       4.400  29.585 239.838  1.00  0.00     0.155 C 
ATOM      3  C4  UNK     1       3.049  35.668 236.366  1.00  0.00    -0.001 C 
ATOM      4  C5  UNK     1       3.269  31.393 235.859  1.00  0.00     0.003 A 
ATOM      5  C6  UNK     1       3.046  32.770 235.938  1.00  0.00     0.013 A 
ATOM      6  C7  UNK     1       3.629  30.644 236.976  1.00  0.00     0.030 A 
ATOM      7  C8  UNK     1       4.046  31.990 240.153  1.00  0.00     0.099 A 
ATOM      8  C11 UNK     1       3.524  34.419 239.739  1.00  0.00     0.081 C 
ATOM      9  C12 UNK     1       2.200  37.279 237.846  1.00  0.00     0.290 C 
ATOM     10  C14 UNK     1       2.996  34.753 237.424  1.00  0.00    -0.017 C 
ATOM     11  C15 UNK     1       3.715  33.067 239.464  1.00  0.00    -0.027 A 
ATOM     12  C16 UNK     1       3.195  33.380 237.184  1.00  0.00    -0.015 A 
ATOM     13  C17 UNK     1       3.761  31.262 238.147  1.00  0.00     0.045 A 
ATOM     14  C18 UNK     1       3.542  32.599 238.216  1.00  0.00     0.009 A 
ATOM     15  C19 UNK     1       2.805  37.051 236.475  1.00  0.00     0.129 C 
ATOM     16  C21 UNK     1       2.634  35.132 238.719  1.00  0.00     0.260 C 
ATOM     17  N2  UNK     1       2.901  36.557 238.898  1.00  0.00     0.094 N 
ATOM     18  N3  UNK     1       4.076  30.916 239.391  1.00  0.00    -0.360 N 
ENDROOT
BRANCH  15  19
ATOM     19  C13 UNK     1       1.842  37.591 235.397  1.00  0.00     0.227 C 
ATOM     20  N1  UNK     1       1.131  36.706 234.514  1.00  0.00    -0.354 N 
ATOM     21  H26 UNK     1       1.254  35.716 234.584  1.00  0.00     0.163 HD
ATOM     22  O1  UNK     1       1.690  38.794 235.289  1.00  0.00    -0.273 OA
BRANCH  20  23
ATOM     23  C20 UNK     1       0.243  37.259 233.533  1.00  0.00     0.107 C 
BRANCH  23  24
ATOM     24  C9  UNK     1       0.048  36.290 232.376  1.00  0.00     0.023 C 
ATOM     25  C1  UNK     1       0.988  36.632 231.260  1.00  0.00     0.007 C 
ENDBRANCH  23  24
BRANCH  23  26
ATOM     26  C10 UNK     1      -1.106  37.565 234.153  1.00  0.00     0.189 C 
BRANCH  26  27
ATOM     27  O2  UNK     1      -1.311  38.984 234.159  1.00  0.00    -0.399 OA
ATOM     28  H27 UNK     1      -1.355  39.294 235.056  1.00  0.00     0.209 HD
ENDBRANCH  26  27
ENDBRANCH  23  26
ENDBRANCH  20  23
ENDBRANCH  15  19
TORSDOF 5
ENDMDL
MODEL 8
REMARK VINA RESULT:      -6.2      7.329      9.394
REMARK  5 active torsions:
REMARK  status: ('A' for Active; 'I' for Inactive)
REMARK    1  A    between atoms: C9_9  and  C20_20 
REMARK    2  A    between atoms: C10_10  and  C20_20 
REMARK    3  A    between atoms: C10_10  and  O2_26 
REMARK    4  A    between atoms: C13_13  and  C19_19 
REMARK       I    between atoms: C13_13  and  N1_22 
REMARK    5  A    between atoms: C20_20  and  N1_22 
ROOT
ATOM      1  C2  UNK     1       0.433  39.324 238.361  1.00  0.00     0.310 C 
ATOM      2  C3  UNK     1       3.876  33.163 241.384  1.00  0.00     0.155 C 
ATOM      3  C4  UNK     1       1.912  36.757 235.544  1.00  0.00    -0.001 C 
ATOM      4  C5  UNK     1       3.047  32.846 236.958  1.00  0.00     0.003 A 
ATOM      5  C6  UNK     1       2.547  34.034 236.418  1.00  0.00     0.013 A 
ATOM      6  C7  UNK     1       3.368  32.733 238.308  1.00  0.00     0.030 A 
ATOM      7  C8  UNK     1       3.010  35.318 240.603  1.00  0.00     0.099 A 
ATOM      8  C11 UNK     1       2.092  37.156 239.146  1.00  0.00     0.081 C 
ATOM      9  C12 UNK     1       0.543  38.571 236.127  1.00  0.00     0.290 C 
ATOM     10  C14 UNK     1       1.876  36.373 236.889  1.00  0.00    -0.017 C 
ATOM     11  C15 UNK     1       2.586  35.902 239.497  1.00  0.00    -0.027 A 
ATOM     12  C16 UNK     1       2.376  35.117 237.282  1.00  0.00    -0.015 A 
ATOM     13  C17 UNK     1       3.191  33.788 239.100  1.00  0.00     0.045 A 
ATOM     14  C18 UNK     1       2.705  34.938 238.568  1.00  0.00     0.009 A 
ATOM     15  C19 UNK     1       1.387  37.957 235.028  1.00  0.00     0.129 C 
ATOM     16  C21 UNK     1       1.249  37.148 237.869  1.00  0.00     0.260 C 
ATOM     17  N2  UNK     1       1.199  38.539 237.426  1.00  0.00     0.094 N 
ATOM     18  N3  UNK     1       3.370  34.070 240.386  1.00  0.00    -0.360 N 
ENDROOT
BRANCH  15  19
ATOM     19  C13 UNK     1       0.517  37.756 233.769  1.00  0.00     0.227 C 
ATOM     20  N1  UNK     1       0.924  36.874 232.709  1.00  0.00    -0.354 N 
ATOM     21  H26 UNK     1       1.788  36.376 232.770  1.00  0.00     0.163 HD
ATOM     22  O1  UNK     1      -0.532  38.365 233.672  1.00  0.00    -0.273 OA
BRANCH  20  23
ATOM     23  C20 UNK     1       0.076  36.717 231.563  1.00  0.00     0.107 C 
BRANCH  23  24
ATOM     24  C9  UNK     1       0.899  36.406 230.321  1.00  0.00     0.023 C 
ATOM     25  C1  UNK     1       0.398  35.149 229.679  1.00  0.00     0.007 C 
ENDBRANCH  23  24
BRANCH  23  26
ATOM     26  C10 UNK     1      -0.918  35.596 231.789  1.00  0.00     0.189 C 
BRANCH  26  27
ATOM     27  O2  UNK     1      -2.160  36.150 232.242  1.00  0.00    -0.399 OA
ATOM     28  H27 UNK     1      -2.404  35.748 233.068  1.00  0.00     0.209 HD
ENDBRANCH  26  27
ENDBRANCH  23  26
ENDBRANCH  20  23
ENDBRANCH  15  19
TORSDOF 5
ENDMDL
MODEL 9
REMARK VINA RESULT:      -6.2      5.326      7.285
REMARK  5 active torsions:
REMARK  status: ('A' for Active; 'I' for Inactive)
REMARK    1  A    between atoms: C9_9  and  C20_20 
REMARK    2  A    between atoms: C10_10  and  C20_20 
REMARK    3  A    between atoms: C10_10  and  O2_26 
REMARK    4  A    between atoms: C13_13  and  C19_19 
REMARK       I    between atoms: C13_13  and  N1_22 
REMARK    5  A    between atoms: C20_20  and  N1_22 
ROOT
ATOM      1  C2  UNK     1       0.260  33.138 233.354  1.00  0.00     0.310 C 
ATOM      2  C3  UNK     1      -3.176  36.735 227.506  1.00  0.00     0.155 C 
ATOM      3  C4  UNK     1       0.498  37.211 233.602  1.00  0.00    -0.001 C 
ATOM      4  C5  UNK     1      -2.107  39.421 230.972  1.00  0.00     0.003 A 
ATOM      5  C6  UNK     1      -1.364  38.762 231.955  1.00  0.00     0.013 A 
ATOM      6  C7  UNK     1      -2.537  38.771 229.819  1.00  0.00     0.030 A 
ATOM      7  C8  UNK     1      -1.883  35.429 229.126  1.00  0.00     0.099 A 
ATOM      8  C11 UNK     1      -0.570  34.744 231.164  1.00  0.00     0.081 C 
ATOM      9  C12 UNK     1       0.703  35.095 234.595  1.00  0.00     0.290 C 
ATOM     10  C14 UNK     1      -0.332  36.616 232.644  1.00  0.00    -0.017 C 
ATOM     11  C15 UNK     1      -1.285  35.566 230.296  1.00  0.00    -0.027 A 
ATOM     12  C16 UNK     1      -1.063  37.416 231.745  1.00  0.00    -0.015 A 
ATOM     13  C17 UNK     1      -2.231  37.487 229.655  1.00  0.00     0.045 A 
ATOM     14  C18 UNK     1      -1.509  36.853 230.613  1.00  0.00     0.009 A 
ATOM     15  C19 UNK     1       1.225  36.519 234.589  1.00  0.00     0.129 C 
ATOM     16  C21 UNK     1      -0.564  35.238 232.611  1.00  0.00     0.260 C 
ATOM     17  N2  UNK     1       0.549  34.546 233.256  1.00  0.00     0.094 N 
ATOM     18  N3  UNK     1      -2.446  36.553 228.734  1.00  0.00    -0.360 N 
ENDROOT
BRANCH  15  19
ATOM     19  C13 UNK     1       1.072  37.123 236.001  1.00  0.00     0.227 C 
ATOM     20  N1  UNK     1       2.002  38.097 236.504  1.00  0.00    -0.354 N 
ATOM     21  H26 UNK     1       2.773  38.398 235.943  1.00  0.00     0.163 HD
ATOM     22  O1  UNK     1       0.148  36.758 236.703  1.00  0.00    -0.273 OA
BRANCH  20  23
ATOM     23  C20 UNK     1       1.812  38.632 237.822  1.00  0.00     0.107 C 
BRANCH  23  24
ATOM     24  C9  UNK     1       3.143  39.049 238.431  1.00  0.00     0.023 C 
ATOM     25  C1  UNK     1       3.208  38.612 239.863  1.00  0.00     0.007 C 
ENDBRANCH  23  24
BRANCH  23  26
ATOM     26  C10 UNK     1       0.892  39.835 237.777  1.00  0.00     0.189 C 
BRANCH  26  27
ATOM     27  O2  UNK     1      -0.025  39.770 238.876  1.00  0.00    -0.399 OA
ATOM     28  H27 UNK     1      -0.394  38.896 238.931  1.00  0.00     0.209 HD
ENDBRANCH  26  27
ENDBRANCH  23  26
ENDBRANCH  20  23
ENDBRANCH  15  19
TORSDOF 5
ENDMDL
