MODEL 1
REMARK VINA RESULT:      -7.3      0.000      0.000
REMARK  4 active torsions:
REMARK  status: ('A' for Active; 'I' for Inactive)
REMARK    1  A    between atoms: C1_1  and  O1_2 
REMARK    2  A    between atoms: C3_4  and  C9_10 
REMARK    3  A    between atoms: C3_4  and  C14_17 
REMARK    4  A    between atoms: O2_15  and  C14_17 
ROOT
ATOM      1  C1  UNK     1      -3.635  40.938 228.310  1.00  0.00     0.069 A 
ATOM      2  C2  UNK     1      -3.704  41.641 227.137  1.00  0.00     0.037 A 
ATOM      3  C4  UNK     1      -2.752  42.595 226.848  1.00  0.00     0.015 A 
ATOM      4  C5  UNK     1      -1.722  42.858 227.729  1.00  0.00    -0.025 A 
ATOM      5  C6  UNK     1      -1.683  42.095 228.969  1.00  0.00    -0.023 A 
ATOM      6  C7  UNK     1      -2.636  41.163 229.211  1.00  0.00     0.049 A 
ATOM      7  C8  UNK     1      -0.734  43.799 227.514  1.00  0.00     0.020 A 
ATOM      8  C9  UNK     1       0.261  43.972 228.466  1.00  0.00    -0.043 A 
ATOM      9  C11 UNK     1      -0.700  42.296 229.881  1.00  0.00     0.013 A 
ATOM     10  C12 UNK     1       0.250  43.239 229.621  1.00  0.00     0.009 A 
ENDROOT
BRANCH   8  11
ATOM     11  C3  UNK     1       1.346  44.973 228.360  1.00  0.00     0.112 C 
ATOM     12  C10 UNK     1       2.586  44.467 229.057  1.00  0.00     0.026 C 
BRANCH  11  13
ATOM     13  C14 UNK     1       1.113  46.375 228.773  1.00  0.00     0.148 C 
ATOM     14  O3  UNK     1       0.404  46.600 229.734  1.00  0.00    -0.649 OA
BRANCH  13  15
ATOM     15  O2  UNK     1       1.598  47.282 228.108  1.00  0.00    -0.776 OA
ATOM     16  H1  UNK     1       1.399  48.116 228.517  1.00  0.00     0.167 HD
ENDBRANCH  13  15
ENDBRANCH  11  13
ENDBRANCH   8  11
BRANCH   1  17
ATOM     17  O1  UNK     1      -4.537  39.998 228.652  1.00  0.00    -0.356 OA
ATOM     18  C13 UNK     1      -4.379  38.683 228.236  1.00  0.00     0.210 C 
ENDBRANCH   1  17
TORSDOF 4
ENDMDL
MODEL 2
REMARK VINA RESULT:      -6.5      2.156      5.770
REMARK  4 active torsions:
REMARK  status: ('A' for Active; 'I' for Inactive)
REMARK    1  A    between atoms: C1_1  and  O1_2 
REMARK    2  A    between atoms: C3_4  and  C9_10 
REMARK    3  A    between atoms: C3_4  and  C14_17 
REMARK    4  A    between atoms: O2_15  and  C14_17 
ROOT
ATOM      1  C1  UNK     1       1.888  43.906 229.733  1.00  0.00     0.069 A 
ATOM      2  C2  UNK     1       2.048  44.567 228.545  1.00  0.00     0.037 A 
ATOM      3  C4  UNK     1       1.084  44.466 227.564  1.00  0.00     0.015 A 
ATOM      4  C5  UNK     1      -0.049  43.702 227.760  1.00  0.00    -0.025 A 
ATOM      5  C6  UNK     1      -0.183  43.009 229.035  1.00  0.00    -0.023 A 
ATOM      6  C7  UNK     1       0.785  43.140 229.972  1.00  0.00     0.049 A 
ATOM      7  C8  UNK     1      -1.056  43.548 226.827  1.00  0.00     0.020 A 
ATOM      8  C9  UNK     1      -2.157  42.762 227.137  1.00  0.00    -0.043 A 
ATOM      9  C11 UNK     1      -1.270  42.242 229.300  1.00  0.00     0.013 A 
ATOM     10  C12 UNK     1      -2.234  42.122 228.343  1.00  0.00     0.009 A 
ENDROOT
BRANCH   8  11
ATOM     11  C3  UNK     1      -3.275  42.497 226.204  1.00  0.00     0.112 C 
ATOM     12  C10 UNK     1      -2.767  42.466 224.783  1.00  0.00     0.026 C 
BRANCH  11  13
ATOM     13  C14 UNK     1      -4.499  43.329 226.249  1.00  0.00     0.148 C 
ATOM     14  O3  UNK     1      -5.566  42.800 226.494  1.00  0.00    -0.649 OA
BRANCH  13  15
ATOM     15  O2  UNK     1      -4.419  44.522 225.990  1.00  0.00    -0.776 OA
ATOM     16  H1  UNK     1      -3.508  44.760 225.866  1.00  0.00     0.167 HD
ENDBRANCH  13  15
ENDBRANCH  11  13
ENDBRANCH   8  11
BRANCH   1  17
ATOM     17  O1  UNK     1       2.795  43.960 230.727  1.00  0.00    -0.356 OA
ATOM     18  C13 UNK     1       4.144  44.125 230.443  1.00  0.00     0.210 C 
ENDBRANCH   1  17
TORSDOF 4
ENDMDL
MODEL 3
REMARK VINA RESULT:      -6.5      8.205      9.429
REMARK  4 active torsions:
REMARK  status: ('A' for Active; 'I' for Inactive)
REMARK    1  A    between atoms: C1_1  and  O1_2 
REMARK    2  A    between atoms: C3_4  and  C9_10 
REMARK    3  A    between atoms: C3_4  and  C14_17 
REMARK    4  A    between atoms: O2_15  and  C14_17 
ROOT
ATOM      1  C1  UNK     1       0.053  34.790 232.085  1.00  0.00     0.069 A 
ATOM      2  C2  UNK     1       0.397  35.967 231.475  1.00  0.00     0.037 A 
ATOM      3  C4  UNK     1       0.941  36.995 232.215  1.00  0.00     0.015 A 
ATOM      4  C5  UNK     1       1.145  36.858 233.574  1.00  0.00    -0.025 A 
ATOM      5  C6  UNK     1       0.763  35.595 234.190  1.00  0.00    -0.023 A 
ATOM      6  C7  UNK     1       0.237  34.609 233.424  1.00  0.00     0.049 A 
ATOM      7  C8  UNK     1       1.680  37.841 234.383  1.00  0.00     0.020 A 
ATOM      8  C9  UNK     1       1.850  37.589 235.738  1.00  0.00    -0.043 A 
ATOM      9  C11 UNK     1       0.936  35.386 235.519  1.00  0.00     0.013 A 
ATOM     10  C12 UNK     1       1.467  36.391 236.274  1.00  0.00     0.009 A 
ENDROOT
BRANCH   8  11
ATOM     11  C3  UNK     1       2.379  38.577 236.705  1.00  0.00     0.112 C 
ATOM     12  C10 UNK     1       3.307  37.898 237.683  1.00  0.00     0.026 C 
BRANCH  11  13
ATOM     13  C14 UNK     1       1.454  39.450 237.462  1.00  0.00     0.148 C 
ATOM     14  O3  UNK     1       1.325  39.280 238.659  1.00  0.00    -0.649 OA
BRANCH  13  15
ATOM     15  O2  UNK     1       0.800  40.292 236.861  1.00  0.00    -0.776 OA
ATOM     16  H1  UNK     1       1.073  40.315 235.951  1.00  0.00     0.167 HD
ENDBRANCH  13  15
ENDBRANCH  11  13
ENDBRANCH   8  11
BRANCH   1  17
ATOM     17  O1  UNK     1      -0.487  33.752 231.418  1.00  0.00    -0.356 OA
ATOM     18  C13 UNK     1      -0.317  33.630 230.045  1.00  0.00     0.210 C 
ENDBRANCH   1  17
TORSDOF 4
ENDMDL
MODEL 4
REMARK VINA RESULT:      -6.2     10.364     11.541
REMARK  4 active torsions:
REMARK  status: ('A' for Active; 'I' for Inactive)
REMARK    1  A    between atoms: C1_1  and  O1_2 
REMARK    2  A    between atoms: C3_4  and  C9_10 
REMARK    3  A    between atoms: C3_4  and  C14_17 
REMARK    4  A    between atoms: O2_15  and  C14_17 
ROOT
ATOM      1  C1  UNK     1       1.793  32.799 235.308  1.00  0.00     0.069 A 
ATOM      2  C2  UNK     1       0.872  33.563 234.642  1.00  0.00     0.037 A 
ATOM      3  C4  UNK     1       0.805  34.921 234.873  1.00  0.00     0.015 A 
ATOM      4  C5  UNK     1       1.657  35.528 235.774  1.00  0.00    -0.025 A 
ATOM      5  C6  UNK     1       2.620  34.683 236.467  1.00  0.00    -0.023 A 
ATOM      6  C7  UNK     1       2.655  33.355 236.206  1.00  0.00     0.049 A 
ATOM      7  C8  UNK     1       1.650  36.879 236.063  1.00  0.00     0.020 A 
ATOM      8  C9  UNK     1       2.561  37.383 236.980  1.00  0.00    -0.043 A 
ATOM      9  C11 UNK     1       3.491  35.210 237.364  1.00  0.00     0.013 A 
ATOM     10  C12 UNK     1       3.441  36.550 237.615  1.00  0.00     0.009 A 
ENDROOT
BRANCH   8  11
ATOM     11  C3  UNK     1       2.622  38.804 237.394  1.00  0.00     0.112 C 
ATOM     12  C10 UNK     1       3.550  38.959 238.575  1.00  0.00     0.026 C 
BRANCH  11  13
ATOM     13  C14 UNK     1       1.377  39.555 237.672  1.00  0.00     0.148 C 
ATOM     14  O3  UNK     1       0.849  39.446 238.762  1.00  0.00    -0.649 OA
BRANCH  13  15
ATOM     15  O2  UNK     1       0.877  40.231 236.782  1.00  0.00    -0.776 OA
ATOM     16  H1  UNK     1       0.033  40.558 237.069  1.00  0.00     0.167 HD
ENDBRANCH  13  15
ENDBRANCH  11  13
ENDBRANCH   8  11
BRANCH   1  17
ATOM     17  O1  UNK     1       1.904  31.469 235.130  1.00  0.00    -0.356 OA
ATOM     18  C13 UNK     1       2.035  30.618 236.219  1.00  0.00     0.210 C 
ENDBRANCH   1  17
TORSDOF 4
ENDMDL
MODEL 5
REMARK VINA RESULT:      -5.9      8.900     10.263
REMARK  4 active torsions:
REMARK  status: ('A' for Active; 'I' for Inactive)
REMARK    1  A    between atoms: C1_1  and  O1_2 
REMARK    2  A    between atoms: C3_4  and  C9_10 
REMARK    3  A    between atoms: C3_4  and  C14_17 
REMARK    4  A    between atoms: O2_15  and  C14_17 
ROOT
ATOM      1  C1  UNK     1       0.462  35.252 232.453  1.00  0.00     0.069 A 
ATOM      2  C2  UNK     1       0.373  34.239 233.371  1.00  0.00     0.037 A 
ATOM      3  C4  UNK     1       0.630  34.490 234.702  1.00  0.00     0.015 A 
ATOM      4  C5  UNK     1       0.982  35.754 235.130  1.00  0.00    -0.025 A 
ATOM      5  C6  UNK     1       1.072  36.806 234.126  1.00  0.00    -0.023 A 
ATOM      6  C7  UNK     1       0.805  36.518 232.830  1.00  0.00     0.049 A 
ATOM      7  C8  UNK     1       1.259  36.083 236.443  1.00  0.00     0.020 A 
ATOM      8  C9  UNK     1       1.593  37.392 236.760  1.00  0.00    -0.043 A 
ATOM      9  C11 UNK     1       1.409  38.073 234.472  1.00  0.00     0.013 A 
ATOM     10  C12 UNK     1       1.675  38.344 235.781  1.00  0.00     0.009 A 
ENDROOT
BRANCH   8  11
ATOM     11  C3  UNK     1       1.944  37.851 238.123  1.00  0.00     0.112 C 
ATOM     12  C10 UNK     1       1.160  39.094 238.468  1.00  0.00     0.026 C 
BRANCH  11  13
ATOM     13  C14 UNK     1       3.360  38.069 238.497  1.00  0.00     0.148 C 
ATOM     14  O3  UNK     1       4.046  37.113 238.800  1.00  0.00    -0.649 OA
BRANCH  13  15
ATOM     15  O2  UNK     1       3.796  39.211 238.542  1.00  0.00    -0.776 OA
ATOM     16  H1  UNK     1       4.729  39.202 238.363  1.00  0.00     0.167 HD
ENDBRANCH  13  15
ENDBRANCH  11  13
ENDBRANCH   8  11
BRANCH   1  17
ATOM     17  O1  UNK     1       0.228  35.070 231.140  1.00  0.00    -0.356 OA
ATOM     18  C13 UNK     1       0.739  35.956 230.201  1.00  0.00     0.210 C 
ENDBRANCH   1  17
TORSDOF 4
ENDMDL
MODEL 6
REMARK VINA RESULT:      -5.8      1.898      6.226
REMARK  4 active torsions:
REMARK  status: ('A' for Active; 'I' for Inactive)
REMARK    1  A    between atoms: C1_1  and  O1_2 
REMARK    2  A    between atoms: C3_4  and  C9_10 
REMARK    3  A    between atoms: C3_4  and  C14_17 
REMARK    4  A    between atoms: O2_15  and  C14_17 
ROOT
ATOM      1  C1  UNK     1       2.421  44.123 229.450  1.00  0.00     0.069 A 
ATOM      2  C2  UNK     1       1.474  45.007 229.893  1.00  0.00     0.037 A 
ATOM      3  C4  UNK     1       0.154  44.617 229.984  1.00  0.00     0.015 A 
ATOM      4  C5  UNK     1      -0.233  43.340 229.631  1.00  0.00    -0.025 A 
ATOM      5  C6  UNK     1       0.801  42.428 229.160  1.00  0.00    -0.023 A 
ATOM      6  C7  UNK     1       2.085  42.850 229.091  1.00  0.00     0.049 A 
ATOM      7  C8  UNK     1      -1.532  42.876 229.690  1.00  0.00     0.020 A 
ATOM      8  C9  UNK     1      -1.805  41.566 229.319  1.00  0.00    -0.043 A 
ATOM      9  C11 UNK     1       0.496  41.157 228.798  1.00  0.00     0.013 A 
ATOM     10  C12 UNK     1      -0.803  40.749 228.873  1.00  0.00     0.009 A 
ENDROOT
BRANCH   8  11
ATOM     11  C3  UNK     1      -3.161  40.973 229.307  1.00  0.00     0.112 C 
ATOM     12  C10 UNK     1      -3.077  39.486 229.556  1.00  0.00     0.026 C 
BRANCH  11  13
ATOM     13  C14 UNK     1      -4.070  41.208 228.163  1.00  0.00     0.148 C 
ATOM     14  O3  UNK     1      -5.236  40.877 228.255  1.00  0.00    -0.649 OA
BRANCH  13  15
ATOM     15  O2  UNK     1      -3.618  41.683 227.130  1.00  0.00    -0.776 OA
ATOM     16  H1  UNK     1      -4.115  41.360 226.388  1.00  0.00     0.167 HD
ENDBRANCH  13  15
ENDBRANCH  11  13
ENDBRANCH   8  11
BRANCH   1  17
ATOM     17  O1  UNK     1       3.723  44.445 229.335  1.00  0.00    -0.356 OA
ATOM     18  C13 UNK     1       4.653  43.966 230.248  1.00  0.00     0.210 C 
ENDBRANCH   1  17
TORSDOF 4
ENDMDL
MODEL 7
REMARK VINA RESULT:      -5.7      1.798      2.879
REMARK  4 active torsions:
REMARK  status: ('A' for Active; 'I' for Inactive)
REMARK    1  A    between atoms: C1_1  and  O1_2 
REMARK    2  A    between atoms: C3_4  and  C9_10 
REMARK    3  A    between atoms: C3_4  and  C14_17 
REMARK    4  A    between atoms: O2_15  and  C14_17 
ROOT
ATOM      1  C1  UNK     1      -5.397  40.967 226.483  1.00  0.00     0.069 A 
ATOM      2  C2  UNK     1      -5.178  40.707 227.809  1.00  0.00     0.037 A 
ATOM      3  C4  UNK     1      -4.017  41.139 228.414  1.00  0.00     0.015 A 
ATOM      4  C5  UNK     1      -3.061  41.833 227.699  1.00  0.00    -0.025 A 
ATOM      5  C6  UNK     1      -3.326  42.086 226.289  1.00  0.00    -0.023 A 
ATOM      6  C7  UNK     1      -4.482  41.650 225.737  1.00  0.00     0.049 A 
ATOM      7  C8  UNK     1      -1.873  42.293 228.231  1.00  0.00     0.020 A 
ATOM      8  C9  UNK     1      -0.988  42.990 227.419  1.00  0.00    -0.043 A 
ATOM      9  C11 UNK     1      -2.434  42.764 225.524  1.00  0.00     0.013 A 
ATOM     10  C12 UNK     1      -1.275  43.195 226.098  1.00  0.00     0.009 A 
ENDROOT
BRANCH   8  11
ATOM     11  C3  UNK     1       0.328  43.497 227.870  1.00  0.00     0.112 C 
ATOM     12  C10 UNK     1       0.676  42.907 229.215  1.00  0.00     0.026 C 
BRANCH  11  13
ATOM     13  C14 UNK     1       0.592  44.953 227.912  1.00  0.00     0.148 C 
ATOM     14  O3  UNK     1      -0.086  45.658 228.633  1.00  0.00    -0.649 OA
BRANCH  13  15
ATOM     15  O2  UNK     1       1.455  45.424 227.183  1.00  0.00    -0.776 OA
ATOM     16  H1  UNK     1       1.057  45.729 226.376  1.00  0.00     0.167 HD
ENDBRANCH  13  15
ENDBRANCH  11  13
ENDBRANCH   8  11
BRANCH   1  17
ATOM     17  O1  UNK     1      -6.508  40.569 225.835  1.00  0.00    -0.356 OA
ATOM     18  C13 UNK     1      -7.765  40.938 226.294  1.00  0.00     0.210 C 
ENDBRANCH   1  17
TORSDOF 4
ENDMDL
MODEL 8
REMARK VINA RESULT:      -5.7      8.978     11.314
REMARK  4 active torsions:
REMARK  status: ('A' for Active; 'I' for Inactive)
REMARK    1  A    between atoms: C1_1  and  O1_2 
REMARK    2  A    between atoms: C3_4  and  C9_10 
REMARK    3  A    between atoms: C3_4  and  C14_17 
REMARK    4  A    between atoms: O2_15  and  C14_17 
ROOT
ATOM      1  C1  UNK     1       3.418  36.633 238.271  1.00  0.00     0.069 A 
ATOM      2  C2  UNK     1       3.083  35.310 238.164  1.00  0.00     0.037 A 
ATOM      3  C4  UNK     1       2.353  34.869 237.080  1.00  0.00     0.015 A 
ATOM      4  C5  UNK     1       1.948  35.746 236.095  1.00  0.00    -0.025 A 
ATOM      5  C6  UNK     1       2.318  37.147 236.245  1.00  0.00    -0.023 A 
ATOM      6  C7  UNK     1       3.041  37.536 237.321  1.00  0.00     0.049 A 
ATOM      7  C8  UNK     1       1.212  35.384 234.984  1.00  0.00     0.020 A 
ATOM      8  C9  UNK     1       0.868  36.351 234.049  1.00  0.00    -0.043 A 
ATOM      9  C11 UNK     1       1.958  38.067 235.315  1.00  0.00     0.013 A 
ATOM     10  C12 UNK     1       1.229  37.657 234.238  1.00  0.00     0.009 A 
ENDROOT
BRANCH   8  11
ATOM     11  C3  UNK     1       0.053  36.086 232.842  1.00  0.00     0.112 C 
ATOM     12  C10 UNK     1       0.833  36.451 231.602  1.00  0.00     0.026 C 
BRANCH  11  13
ATOM     13  C14 UNK     1      -1.311  36.648 232.723  1.00  0.00     0.148 C 
ATOM     14  O3  UNK     1      -1.577  37.363 231.777  1.00  0.00    -0.649 OA
BRANCH  13  15
ATOM     15  O2  UNK     1      -2.129  36.422 233.605  1.00  0.00    -0.776 OA
ATOM     16  H1  UNK     1      -1.684  36.360 234.442  1.00  0.00     0.167 HD
ENDBRANCH  13  15
ENDBRANCH  11  13
ENDBRANCH   8  11
BRANCH   1  17
ATOM     17  O1  UNK     1       4.125  37.125 239.306  1.00  0.00    -0.356 OA
ATOM     18  C13 UNK     1       4.136  38.488 239.570  1.00  0.00     0.210 C 
ENDBRANCH   1  17
TORSDOF 4
ENDMDL
MODEL 9
REMARK VINA RESULT:      -5.7      7.873     10.152
REMARK  4 active torsions:
REMARK  status: ('A' for Active; 'I' for Inactive)
REMARK    1  A    between atoms: C1_1  and  O1_2 
REMARK    2  A    between atoms: C3_4  and  C9_10 
REMARK    3  A    between atoms: C3_4  and  C14_17 
REMARK    4  A    between atoms: O2_15  and  C14_17 
ROOT
ATOM      1  C1  UNK     1       1.758  36.639 236.380  1.00  0.00     0.069 A 
ATOM      2  C2  UNK     1       1.893  37.827 235.712  1.00  0.00     0.037 A 
ATOM      3  C4  UNK     1       1.533  37.918 234.384  1.00  0.00     0.015 A 
ATOM      4  C5  UNK     1       1.036  36.821 233.709  1.00  0.00    -0.025 A 
ATOM      5  C6  UNK     1       0.910  35.573 234.449  1.00  0.00    -0.023 A 
ATOM      6  C7  UNK     1       1.271  35.529 235.754  1.00  0.00     0.049 A 
ATOM      7  C8  UNK     1       0.658  36.830 232.381  1.00  0.00     0.020 A 
ATOM      8  C9  UNK     1       0.161  35.668 231.806  1.00  0.00    -0.043 A 
ATOM      9  C11 UNK     1       0.428  34.454 233.853  1.00  0.00     0.013 A 
ATOM     10  C12 UNK     1       0.071  34.516 232.538  1.00  0.00     0.009 A 
ENDROOT
BRANCH   8  11
ATOM     11  C3  UNK     1      -0.240  35.551 230.386  1.00  0.00     0.112 C 
ATOM     12  C10 UNK     1      -0.650  34.130 230.081  1.00  0.00     0.026 C 
BRANCH  11  13
ATOM     13  C14 UNK     1       0.664  36.021 229.313  1.00  0.00     0.148 C 
ATOM     14  O3  UNK     1       0.578  37.171 228.928  1.00  0.00    -0.649 OA
BRANCH  13  15
ATOM     15  O2  UNK     1       1.444  35.230 228.801  1.00  0.00    -0.776 OA
ATOM     16  H1  UNK     1       1.523  35.417 227.873  1.00  0.00     0.167 HD
ENDBRANCH  13  15
ENDBRANCH  11  13
ENDBRANCH   8  11
BRANCH   1  17
ATOM     17  O1  UNK     1       2.096  36.487 237.674  1.00  0.00    -0.356 OA
ATOM     18  C13 UNK     1       3.141  35.648 238.037  1.00  0.00     0.210 C 
ENDBRANCH   1  17
TORSDOF 4
ENDMDL
