MODEL 1
REMARK VINA RESULT:      -7.7      0.000      0.000
REMARK  7 active torsions:
REMARK  status: ('A' for Active; 'I' for Inactive)
REMARK    1  A    between atoms: C2_4  and  C4_8 
REMARK    2  A    between atoms: C4_8  and  C6_10 
REMARK    3  A    between atoms: C9_13  and  O3_16 
REMARK    4  A    between atoms: O3_16  and  C12_17 
REMARK    5  A    between atoms: C12_17  and  C13_18 
REMARK    6  A    between atoms: C13_18  and  C19_26 
REMARK    7  A    between atoms: C15_20  and  C16_21 
ROOT
ATOM      1  C6  UNK     1      -1.175  41.828 228.962  1.00  0.00    -0.056 A 
ATOM      2  C7  UNK     1      -0.445  40.737 229.425  1.00  0.00     0.010 A 
ATOM      3  C8  UNK     1      -1.087  39.566 229.792  1.00  0.00     0.037 A 
ATOM      4  C9  UNK     1      -2.469  39.490 229.697  1.00  0.00     0.068 A 
ATOM      5  C10 UNK     1      -3.203  40.582 229.225  1.00  0.00     0.037 A 
ATOM      6  C11 UNK     1      -2.561  41.753 228.851  1.00  0.00     0.010 A 
ENDROOT
BRANCH   4   7
ATOM      7  O3  UNK     1      -3.062  38.334 230.027  1.00  0.00    -0.351 OA
BRANCH   7   8
ATOM      8  C12 UNK     1      -2.690  37.055 229.498  1.00  0.00     0.181 C 
BRANCH   8   9
ATOM      9  C13 UNK     1      -2.520  36.153 230.699  1.00  0.00     0.083 C 
BRANCH   9  10
ATOM     10  C19 UNK     1      -1.370  36.575 231.570  1.00  0.00     0.011 A 
ATOM     11  N2  UNK     1      -1.658  37.280 232.669  1.00  0.00    -0.369 N 
ATOM     12  C17 UNK     1      -0.726  37.665 233.557  1.00  0.00     0.095 A 
ATOM     13  H2  UNK     1      -2.630  37.538 232.841  1.00  0.00     0.165 HD
ATOM     14  C16 UNK     1       0.596  37.373 233.377  1.00  0.00    -0.043 A 
ATOM     15  C5  UNK     1       0.931  36.664 232.219  1.00  0.00     0.010 A 
ATOM     16  C18 UNK     1      -0.051  36.248 231.341  1.00  0.00     0.025 A 
BRANCH  14  17
ATOM     17  C15 UNK     1       1.654  37.759 234.381  1.00  0.00     0.035 C 
ATOM     18  C14 UNK     1       1.513  36.823 235.583  1.00  0.00     0.010 C 
ENDBRANCH  14  17
ENDBRANCH   9  10
ENDBRANCH   8   9
ENDBRANCH   7   8
ENDBRANCH   4   7
BRANCH   1  19
ATOM     19  C4  UNK     1      -0.428  43.082 228.580  1.00  0.00     0.063 C 
BRANCH  19  20
ATOM     20  C2  UNK     1       0.921  43.210 229.293  1.00  0.00     0.153 C 
ATOM     21  C1  UNK     1       0.999  44.416 230.175  1.00  0.00     0.239 C 
ATOM     22  O1  UNK     1       0.023  45.036 230.548  1.00  0.00    -0.272 OA
ATOM     23  N1  UNK     1       2.264  44.699 230.461  1.00  0.00    -0.287 N 
ATOM     24  C3  UNK     1       3.096  44.180 229.563  1.00  0.00     0.287 C 
ATOM     25  H1  UNK     1       2.555  45.236 231.252  1.00  0.00     0.172 HD
ATOM     26  S1  UNK     1       2.367  43.402 228.283  1.00  0.00    -0.054 SA
ATOM     27  O2  UNK     1       4.309  44.245 229.638  1.00  0.00    -0.260 OA
ENDBRANCH  19  20
ENDBRANCH   1  19
TORSDOF 7
ENDMDL
MODEL 2
REMARK VINA RESULT:      -7.7      1.263      2.064
REMARK  7 active torsions:
REMARK  status: ('A' for Active; 'I' for Inactive)
REMARK    1  A    between atoms: C2_4  and  C4_8 
REMARK    2  A    between atoms: C4_8  and  C6_10 
REMARK    3  A    between atoms: C9_13  and  O3_16 
REMARK    4  A    between atoms: O3_16  and  C12_17 
REMARK    5  A    between atoms: C12_17  and  C13_18 
REMARK    6  A    between atoms: C13_18  and  C19_26 
REMARK    7  A    between atoms: C15_20  and  C16_21 
ROOT
ATOM      1  C6  UNK     1      -1.298  42.510 228.363  1.00  0.00    -0.056 A 
ATOM      2  C7  UNK     1      -2.512  42.345 227.703  1.00  0.00     0.010 A 
ATOM      3  C8  UNK     1      -3.421  41.391 228.130  1.00  0.00     0.037 A 
ATOM      4  C9  UNK     1      -3.108  40.596 229.224  1.00  0.00     0.068 A 
ATOM      5  C10 UNK     1      -1.893  40.766 229.893  1.00  0.00     0.037 A 
ATOM      6  C11 UNK     1      -0.984  41.725 229.470  1.00  0.00     0.010 A 
ENDROOT
BRANCH   4   7
ATOM      7  O3  UNK     1      -4.019  39.704 229.637  1.00  0.00    -0.351 OA
BRANCH   7   8
ATOM      8  C12 UNK     1      -4.573  38.672 228.810  1.00  0.00     0.181 C 
BRANCH   8   9
ATOM      9  C13 UNK     1      -4.304  37.377 229.540  1.00  0.00     0.083 C 
BRANCH   9  10
ATOM     10  C19 UNK     1      -2.872  37.260 229.984  1.00  0.00     0.011 A 
ATOM     11  N2  UNK     1      -2.628  37.321 231.297  1.00  0.00    -0.369 N 
ATOM     12  C17 UNK     1      -1.401  37.170 231.821  1.00  0.00     0.095 A 
ATOM     13  H2  UNK     1      -3.410  37.489 231.930  1.00  0.00     0.165 HD
ATOM     14  C16 UNK     1      -0.306  36.965 231.031  1.00  0.00    -0.043 A 
ATOM     15  C5  UNK     1      -0.526  36.930 229.650  1.00  0.00     0.010 A 
ATOM     16  C18 UNK     1      -1.804  37.050 229.139  1.00  0.00     0.025 A 
BRANCH  14  17
ATOM     17  C15 UNK     1       1.076  36.754 231.599  1.00  0.00     0.035 C 
ATOM     18  C14 UNK     1       1.001  37.025 233.103  1.00  0.00     0.010 C 
ENDBRANCH  14  17
ENDBRANCH   9  10
ENDBRANCH   8   9
ENDBRANCH   7   8
ENDBRANCH   4   7
BRANCH   1  19
ATOM     19  C4  UNK     1      -0.341  43.560 227.855  1.00  0.00     0.063 C 
BRANCH  19  20
ATOM     20  C2  UNK     1       0.785  43.867 228.848  1.00  0.00     0.153 C 
ATOM     21  C1  UNK     1       1.052  45.333 228.986  1.00  0.00     0.239 C 
ATOM     22  O1  UNK     1       0.273  46.191 228.624  1.00  0.00    -0.272 OA
ATOM     23  N1  UNK     1       2.245  45.536 229.532  1.00  0.00    -0.287 N 
ATOM     24  C3  UNK     1       3.041  44.482 229.375  1.00  0.00     0.287 C 
ATOM     25  H1  UNK     1       2.512  46.376 230.002  1.00  0.00     0.172 HD
ATOM     26  S1  UNK     1       2.400  43.234 228.476  1.00  0.00    -0.054 SA
ATOM     27  O2  UNK     1       4.161  44.397 229.843  1.00  0.00    -0.260 OA
ENDBRANCH  19  20
ENDBRANCH   1  19
TORSDOF 7
ENDMDL
MODEL 3
REMARK VINA RESULT:      -7.1      3.541      7.298
REMARK  7 active torsions:
REMARK  status: ('A' for Active; 'I' for Inactive)
REMARK    1  A    between atoms: C2_4  and  C4_8 
REMARK    2  A    between atoms: C4_8  and  C6_10 
REMARK    3  A    between atoms: C9_13  and  O3_16 
REMARK    4  A    between atoms: O3_16  and  C12_17 
REMARK    5  A    between atoms: C12_17  and  C13_18 
REMARK    6  A    between atoms: C13_18  and  C19_26 
REMARK    7  A    between atoms: C15_20  and  C16_21 
ROOT
ATOM      1  C6  UNK     1      -0.459  37.606 232.119  1.00  0.00    -0.056 A 
ATOM      2  C7  UNK     1      -0.058  37.535 230.788  1.00  0.00     0.010 A 
ATOM      3  C8  UNK     1      -0.576  38.410 229.849  1.00  0.00     0.037 A 
ATOM      4  C9  UNK     1      -1.505  39.362 230.246  1.00  0.00     0.068 A 
ATOM      5  C10 UNK     1      -1.904  39.440 231.584  1.00  0.00     0.037 A 
ATOM      6  C11 UNK     1      -1.381  38.566 232.527  1.00  0.00     0.010 A 
ENDROOT
BRANCH   4   7
ATOM      7  O3  UNK     1      -1.966  40.219 229.325  1.00  0.00    -0.351 OA
BRANCH   7   8
ATOM      8  C12 UNK     1      -2.121  41.628 229.538  1.00  0.00     0.181 C 
BRANCH   8   9
ATOM      9  C13 UNK     1      -1.495  42.292 228.334  1.00  0.00     0.083 C 
BRANCH   9  10
ATOM     10  C19 UNK     1      -0.033  42.579 228.537  1.00  0.00     0.011 A 
ATOM     11  N2  UNK     1       0.308  43.301 229.610  1.00  0.00    -0.369 N 
ATOM     12  C17 UNK     1       1.583  43.574 229.933  1.00  0.00     0.095 A 
ATOM     13  H2  UNK     1      -0.434  43.661 230.211  1.00  0.00     0.165 HD
ATOM     14  C16 UNK     1       2.624  43.143 229.161  1.00  0.00    -0.043 A 
ATOM     15  C5  UNK     1       2.295  42.413 228.013  1.00  0.00     0.010 A 
ATOM     16  C18 UNK     1       0.977  42.115 227.725  1.00  0.00     0.025 A 
BRANCH  14  17
ATOM     17  C15 UNK     1       4.064  43.403 229.525  1.00  0.00     0.035 C 
ATOM     18  C14 UNK     1       4.082  44.004 230.932  1.00  0.00     0.010 C 
ENDBRANCH  14  17
ENDBRANCH   9  10
ENDBRANCH   8   9
ENDBRANCH   7   8
ENDBRANCH   4   7
BRANCH   1  19
ATOM     19  C4  UNK     1       0.131  36.624 233.101  1.00  0.00     0.063 C 
BRANCH  19  20
ATOM     20  C2  UNK     1      -0.076  37.047 234.559  1.00  0.00     0.153 C 
ATOM     21  C1  UNK     1       1.115  37.747 235.134  1.00  0.00     0.239 C 
ATOM     22  O1  UNK     1       2.004  38.221 234.456  1.00  0.00    -0.272 OA
ATOM     23  N1  UNK     1       1.053  37.749 236.460  1.00  0.00    -0.287 N 
ATOM     24  C3  UNK     1       0.267  36.779 236.916  1.00  0.00     0.287 C 
ATOM     25  H1  UNK     1       1.538  38.400 237.044  1.00  0.00     0.172 HD
ATOM     26  S1  UNK     1      -0.358  35.764 235.752  1.00  0.00    -0.054 SA
ATOM     27  O2  UNK     1      -0.003  36.613 238.091  1.00  0.00    -0.260 OA
ENDBRANCH  19  20
ENDBRANCH   1  19
TORSDOF 7
ENDMDL
MODEL 4
REMARK VINA RESULT:      -7.0      4.021      7.710
REMARK  7 active torsions:
REMARK  status: ('A' for Active; 'I' for Inactive)
REMARK    1  A    between atoms: C2_4  and  C4_8 
REMARK    2  A    between atoms: C4_8  and  C6_10 
REMARK    3  A    between atoms: C9_13  and  O3_16 
REMARK    4  A    between atoms: O3_16  and  C12_17 
REMARK    5  A    between atoms: C12_17  and  C13_18 
REMARK    6  A    between atoms: C13_18  and  C19_26 
REMARK    7  A    between atoms: C15_20  and  C16_21 
ROOT
ATOM      1  C6  UNK     1       0.409  37.065 234.220  1.00  0.00    -0.056 A 
ATOM      2  C7  UNK     1       0.906  36.729 232.964  1.00  0.00     0.010 A 
ATOM      3  C8  UNK     1       0.350  37.273 231.819  1.00  0.00     0.037 A 
ATOM      4  C9  UNK     1      -0.712  38.159 231.933  1.00  0.00     0.068 A 
ATOM      5  C10 UNK     1      -1.207  38.505 233.194  1.00  0.00     0.037 A 
ATOM      6  C11 UNK     1      -0.648  37.964 234.343  1.00  0.00     0.010 A 
ENDROOT
BRANCH   4   7
ATOM      7  O3  UNK     1      -1.209  38.698 230.811  1.00  0.00    -0.351 OA
BRANCH   7   8
ATOM      8  C12 UNK     1      -1.678  40.048 230.702  1.00  0.00     0.181 C 
BRANCH   8   9
ATOM      9  C13 UNK     1      -1.445  40.445 229.263  1.00  0.00     0.083 C 
BRANCH   9  10
ATOM     10  C19 UNK     1      -0.389  41.507 229.129  1.00  0.00     0.011 A 
ATOM     11  N2  UNK     1      -0.566  42.639 229.819  1.00  0.00    -0.369 N 
ATOM     12  C17 UNK     1       0.333  43.637 229.829  1.00  0.00     0.095 A 
ATOM     13  H2  UNK     1      -1.422  42.749 230.362  1.00  0.00     0.165 HD
ATOM     14  C16 UNK     1       1.490  43.565 229.107  1.00  0.00    -0.043 A 
ATOM     15  C5  UNK     1       1.686  42.406 228.349  1.00  0.00     0.010 A 
ATOM     16  C18 UNK     1       0.763  41.378 228.386  1.00  0.00     0.025 A 
BRANCH  14  17
ATOM     17  C15 UNK     1       2.531  44.656 229.134  1.00  0.00     0.035 C 
ATOM     18  C14 UNK     1       3.691  44.164 230.002  1.00  0.00     0.010 C 
ENDBRANCH  14  17
ENDBRANCH   9  10
ENDBRANCH   8   9
ENDBRANCH   7   8
ENDBRANCH   4   7
BRANCH   1  19
ATOM     19  C4  UNK     1       1.046  36.439 235.436  1.00  0.00     0.063 C 
BRANCH  19  20
ATOM     20  C2  UNK     1       2.180  37.290 236.016  1.00  0.00     0.153 C 
ATOM     21  C1  UNK     1       3.152  36.488 236.824  1.00  0.00     0.239 C 
ATOM     22  O1  UNK     1       3.234  35.278 236.761  1.00  0.00    -0.272 OA
ATOM     23  N1  UNK     1       3.872  37.284 237.604  1.00  0.00    -0.287 N 
ATOM     24  C3  UNK     1       3.259  38.445 237.819  1.00  0.00     0.287 C 
ATOM     25  H1  UNK     1       4.764  37.042 237.985  1.00  0.00     0.172 HD
ATOM     26  S1  UNK     1       1.738  38.580 237.152  1.00  0.00    -0.054 SA
ATOM     27  O2  UNK     1       3.743  39.366 238.448  1.00  0.00    -0.260 OA
ENDBRANCH  19  20
ENDBRANCH   1  19
TORSDOF 7
ENDMDL
MODEL 5
REMARK VINA RESULT:      -6.6      1.332      2.239
REMARK  7 active torsions:
REMARK  status: ('A' for Active; 'I' for Inactive)
REMARK    1  A    between atoms: C2_4  and  C4_8 
REMARK    2  A    between atoms: C4_8  and  C6_10 
REMARK    3  A    between atoms: C9_13  and  O3_16 
REMARK    4  A    between atoms: O3_16  and  C12_17 
REMARK    5  A    between atoms: C12_17  and  C13_18 
REMARK    6  A    between atoms: C13_18  and  C19_26 
REMARK    7  A    between atoms: C15_20  and  C16_21 
ROOT
ATOM      1  C6  UNK     1      -0.515  40.917 229.358  1.00  0.00    -0.056 A 
ATOM      2  C7  UNK     1      -1.559  40.954 230.278  1.00  0.00     0.010 A 
ATOM      3  C8  UNK     1      -2.055  39.783 230.826  1.00  0.00     0.037 A 
ATOM      4  C9  UNK     1      -1.503  38.568 230.447  1.00  0.00     0.068 A 
ATOM      5  C10 UNK     1      -0.449  38.529 229.529  1.00  0.00     0.037 A 
ATOM      6  C11 UNK     1       0.053  39.702 228.984  1.00  0.00     0.010 A 
ENDROOT
BRANCH   4   7
ATOM      7  O3  UNK     1      -1.978  37.452 231.017  1.00  0.00    -0.351 OA
BRANCH   7   8
ATOM      8  C12 UNK     1      -1.850  37.138 232.410  1.00  0.00     0.181 C 
BRANCH   8   9
ATOM      9  C13 UNK     1      -0.600  36.296 232.523  1.00  0.00     0.083 C 
BRANCH   9  10
ATOM     10  C19 UNK     1       0.178  36.598 233.774  1.00  0.00     0.011 A 
ATOM     11  N2  UNK     1      -0.126  35.897 234.871  1.00  0.00    -0.369 N 
ATOM     12  C17 UNK     1       0.535  36.032 236.032  1.00  0.00     0.095 A 
ATOM     13  H2  UNK     1      -0.896  35.230 234.824  1.00  0.00     0.165 HD
ATOM     14  C16 UNK     1       1.561  36.923 236.172  1.00  0.00    -0.043 A 
ATOM     15  C5  UNK     1       1.880  37.695 235.049  1.00  0.00     0.010 A 
ATOM     16  C18 UNK     1       1.208  37.509 233.856  1.00  0.00     0.025 A 
BRANCH  14  17
ATOM     17  C15 UNK     1       2.343  37.064 237.454  1.00  0.00     0.035 C 
ATOM     18  C14 UNK     1       3.822  37.186 237.079  1.00  0.00     0.010 C 
ENDBRANCH  14  17
ENDBRANCH   9  10
ENDBRANCH   8   9
ENDBRANCH   7   8
ENDBRANCH   4   7
BRANCH   1  19
ATOM     19  C4  UNK     1      -0.015  42.221 228.786  1.00  0.00     0.063 C 
BRANCH  19  20
ATOM     20  C2  UNK     1       1.210  42.763 229.528  1.00  0.00     0.153 C 
ATOM     21  C1  UNK     1       0.988  44.132 230.092  1.00  0.00     0.239 C 
ATOM     22  O1  UNK     1      -0.113  44.623 230.240  1.00  0.00    -0.272 OA
ATOM     23  N1  UNK     1       2.149  44.708 230.376  1.00  0.00    -0.287 N 
ATOM     24  C3  UNK     1       3.148  44.165 229.686  1.00  0.00     0.287 C 
ATOM     25  H1  UNK     1       2.260  45.458 231.028  1.00  0.00     0.172 HD
ATOM     26  S1  UNK     1       2.701  42.990 228.593  1.00  0.00    -0.054 SA
ATOM     27  O2  UNK     1       4.317  44.475 229.818  1.00  0.00    -0.260 OA
ENDBRANCH  19  20
ENDBRANCH   1  19
TORSDOF 7
ENDMDL
MODEL 6
REMARK VINA RESULT:      -6.6      4.145      5.816
REMARK  7 active torsions:
REMARK  status: ('A' for Active; 'I' for Inactive)
REMARK    1  A    between atoms: C2_4  and  C4_8 
REMARK    2  A    between atoms: C4_8  and  C6_10 
REMARK    3  A    between atoms: C9_13  and  O3_16 
REMARK    4  A    between atoms: O3_16  and  C12_17 
REMARK    5  A    between atoms: C12_17  and  C13_18 
REMARK    6  A    between atoms: C13_18  and  C19_26 
REMARK    7  A    between atoms: C15_20  and  C16_21 
ROOT
ATOM      1  C6  UNK     1      -1.353  42.872 227.872  1.00  0.00    -0.056 A 
ATOM      2  C7  UNK     1      -2.446  42.730 227.022  1.00  0.00     0.010 A 
ATOM      3  C8  UNK     1      -3.448  41.819 227.311  1.00  0.00     0.037 A 
ATOM      4  C9  UNK     1      -3.353  41.045 228.459  1.00  0.00     0.068 A 
ATOM      5  C10 UNK     1      -2.260  41.191 229.318  1.00  0.00     0.037 A 
ATOM      6  C11 UNK     1      -1.258  42.108 229.032  1.00  0.00     0.010 A 
ENDROOT
BRANCH   4   7
ATOM      7  O3  UNK     1      -4.353  40.195 228.733  1.00  0.00    -0.351 OA
BRANCH   7   8
ATOM      8  C12 UNK     1      -5.576  40.120 227.990  1.00  0.00     0.181 C 
BRANCH   8   9
ATOM      9  C13 UNK     1      -5.813  38.648 227.745  1.00  0.00     0.083 C 
BRANCH   9  10
ATOM     10  C19 UNK     1      -5.093  38.151 226.522  1.00  0.00     0.011 A 
ATOM     11  N2  UNK     1      -4.905  39.021 225.524  1.00  0.00    -0.369 N 
ATOM     12  C17 UNK     1      -4.226  38.716 224.406  1.00  0.00     0.095 A 
ATOM     13  H2  UNK     1      -5.296  39.959 225.615  1.00  0.00     0.165 HD
ATOM     14  C16 UNK     1      -3.696  37.472 224.208  1.00  0.00    -0.043 A 
ATOM     15  C5  UNK     1      -3.905  36.532 225.222  1.00  0.00     0.010 A 
ATOM     16  C18 UNK     1      -4.575  36.883 226.378  1.00  0.00     0.025 A 
BRANCH  14  17
ATOM     17  C15 UNK     1      -2.896  37.119 222.979  1.00  0.00     0.035 C 
ATOM     18  C14 UNK     1      -2.044  35.894 223.321  1.00  0.00     0.010 C 
ENDBRANCH  14  17
ENDBRANCH   9  10
ENDBRANCH   8   9
ENDBRANCH   7   8
ENDBRANCH   4   7
BRANCH   1  19
ATOM     19  C4  UNK     1      -0.285  43.874 227.508  1.00  0.00     0.063 C 
BRANCH  19  20
ATOM     20  C2  UNK     1       0.781  44.026 228.597  1.00  0.00     0.153 C 
ATOM     21  C1  UNK     1       1.097  45.457 228.902  1.00  0.00     0.239 C 
ATOM     22  O1  UNK     1       0.380  46.383 228.581  1.00  0.00    -0.272 OA
ATOM     23  N1  UNK     1       2.257  45.548 229.542  1.00  0.00    -0.287 N 
ATOM     24  C3  UNK     1       3.018  44.478 229.329  1.00  0.00     0.287 C 
ATOM     25  H1  UNK     1       2.525  46.323 230.113  1.00  0.00     0.172 HD
ATOM     26  S1  UNK     1       2.391  43.358 228.267  1.00  0.00    -0.054 SA
ATOM     27  O2  UNK     1       4.099  44.294 229.856  1.00  0.00    -0.260 OA
ENDBRANCH  19  20
ENDBRANCH   1  19
TORSDOF 7
ENDMDL
MODEL 7
REMARK VINA RESULT:      -6.5      3.720      7.426
REMARK  7 active torsions:
REMARK  status: ('A' for Active; 'I' for Inactive)
REMARK    1  A    between atoms: C2_4  and  C4_8 
REMARK    2  A    between atoms: C4_8  and  C6_10 
REMARK    3  A    between atoms: C9_13  and  O3_16 
REMARK    4  A    between atoms: O3_16  and  C12_17 
REMARK    5  A    between atoms: C12_17  and  C13_18 
REMARK    6  A    between atoms: C13_18  and  C19_26 
REMARK    7  A    between atoms: C15_20  and  C16_21 
ROOT
ATOM      1  C6  UNK     1      -0.064  37.299 232.419  1.00  0.00    -0.056 A 
ATOM      2  C7  UNK     1       0.247  37.110 231.075  1.00  0.00     0.010 A 
ATOM      3  C8  UNK     1      -0.425  37.816 230.091  1.00  0.00     0.037 A 
ATOM      4  C9  UNK     1      -1.417  38.715 230.457  1.00  0.00     0.068 A 
ATOM      5  C10 UNK     1      -1.726  38.912 231.806  1.00  0.00     0.037 A 
ATOM      6  C11 UNK     1      -1.049  38.210 232.793  1.00  0.00     0.010 A 
ENDROOT
BRANCH   4   7
ATOM      7  O3  UNK     1      -2.028  39.409 229.487  1.00  0.00    -0.351 OA
BRANCH   7   8
ATOM      8  C12 UNK     1      -3.450  39.490 229.325  1.00  0.00     0.181 C 
BRANCH   8   9
ATOM      9  C13 UNK     1      -3.771  40.966 229.281  1.00  0.00     0.083 C 
BRANCH   9  10
ATOM     10  C19 UNK     1      -2.569  41.801 228.937  1.00  0.00     0.011 A 
ATOM     11  N2  UNK     1      -1.778  42.185 229.944  1.00  0.00    -0.369 N 
ATOM     12  C17 UNK     1      -0.645  42.882 229.761  1.00  0.00     0.095 A 
ATOM     13  H2  UNK     1      -2.048  41.937 230.897  1.00  0.00     0.165 HD
ATOM     14  C16 UNK     1      -0.236  43.266 228.515  1.00  0.00    -0.043 A 
ATOM     15  C5  UNK     1      -1.061  42.906 227.444  1.00  0.00     0.010 A 
ATOM     16  C18 UNK     1      -2.202  42.157 227.658  1.00  0.00     0.025 A 
BRANCH  14  17
ATOM     17  C15 UNK     1       1.053  44.014 228.281  1.00  0.00     0.035 C 
ATOM     18  C14 UNK     1       2.042  43.038 227.641  1.00  0.00     0.010 C 
ENDBRANCH  14  17
ENDBRANCH   9  10
ENDBRANCH   8   9
ENDBRANCH   7   8
ENDBRANCH   4   7
BRANCH   1  19
ATOM     19  C4  UNK     1       0.693  36.502 233.451  1.00  0.00     0.063 C 
BRANCH  19  20
ATOM     20  C2  UNK     1       0.270  36.834 234.885  1.00  0.00     0.153 C 
ATOM     21  C1  UNK     1       1.214  37.776 235.565  1.00  0.00     0.239 C 
ATOM     22  O1  UNK     1       2.025  38.456 234.968  1.00  0.00    -0.272 OA
ATOM     23  N1  UNK     1       1.040  37.736 236.880  1.00  0.00    -0.287 N 
ATOM     24  C3  UNK     1       0.462  36.601 237.263  1.00  0.00     0.287 C 
ATOM     25  H1  UNK     1       1.309  38.468 237.505  1.00  0.00     0.172 HD
ATOM     26  S1  UNK     1       0.189  35.495 236.047  1.00  0.00    -0.054 SA
ATOM     27  O2  UNK     1       0.138  36.354 238.409  1.00  0.00    -0.260 OA
ENDBRANCH  19  20
ENDBRANCH   1  19
TORSDOF 7
ENDMDL
MODEL 8
REMARK VINA RESULT:      -6.3      4.231      7.770
REMARK  7 active torsions:
REMARK  status: ('A' for Active; 'I' for Inactive)
REMARK    1  A    between atoms: C2_4  and  C4_8 
REMARK    2  A    between atoms: C4_8  and  C6_10 
REMARK    3  A    between atoms: C9_13  and  O3_16 
REMARK    4  A    between atoms: O3_16  and  C12_17 
REMARK    5  A    between atoms: C12_17  and  C13_18 
REMARK    6  A    between atoms: C13_18  and  C19_26 
REMARK    7  A    between atoms: C15_20  and  C16_21 
ROOT
ATOM      1  C6  UNK     1       0.814  37.877 234.567  1.00  0.00    -0.056 A 
ATOM      2  C7  UNK     1       1.307  37.269 233.416  1.00  0.00     0.010 A 
ATOM      3  C8  UNK     1       0.451  36.904 232.391  1.00  0.00     0.037 A 
ATOM      4  C9  UNK     1      -0.909  37.149 232.521  1.00  0.00     0.068 A 
ATOM      5  C10 UNK     1      -1.406  37.767 233.672  1.00  0.00     0.037 A 
ATOM      6  C11 UNK     1      -0.548  38.138 234.698  1.00  0.00     0.010 A 
ENDROOT
BRANCH   4   7
ATOM      7  O3  UNK     1      -1.711  36.818 231.500  1.00  0.00    -0.351 OA
BRANCH   7   8
ATOM      8  C12 UNK     1      -3.065  37.268 231.357  1.00  0.00     0.181 C 
BRANCH   8   9
ATOM      9  C13 UNK     1      -3.195  37.715 229.919  1.00  0.00     0.083 C 
BRANCH   9  10
ATOM     10  C19 UNK     1      -2.682  39.112 229.709  1.00  0.00     0.011 A 
ATOM     11  N2  UNK     1      -1.366  39.311 229.843  1.00  0.00    -0.369 N 
ATOM     12  C17 UNK     1      -0.779  40.499 229.624  1.00  0.00     0.095 A 
ATOM     13  H2  UNK     1      -0.782  38.524 230.125  1.00  0.00     0.165 HD
ATOM     14  C16 UNK     1      -1.505  41.599 229.265  1.00  0.00    -0.043 A 
ATOM     15  C5  UNK     1      -2.888  41.429 229.149  1.00  0.00     0.010 A 
ATOM     16  C18 UNK     1      -3.462  40.187 229.344  1.00  0.00     0.025 A 
BRANCH  14  17
ATOM     17  C15 UNK     1      -0.863  42.933 228.975  1.00  0.00     0.035 C 
ATOM     18  C14 UNK     1      -0.688  43.039 227.459  1.00  0.00     0.010 C 
ENDBRANCH  14  17
ENDBRANCH   9  10
ENDBRANCH   8   9
ENDBRANCH   7   8
ENDBRANCH   4   7
BRANCH   1  19
ATOM     19  C4  UNK     1       1.788  38.249 235.657  1.00  0.00     0.063 C 
BRANCH  19  20
ATOM     20  C2  UNK     1       1.871  37.194 236.764  1.00  0.00     0.153 C 
ATOM     21  C1  UNK     1       1.201  37.627 238.030  1.00  0.00     0.239 C 
ATOM     22  O1  UNK     1       0.408  38.545 238.086  1.00  0.00    -0.272 OA
ATOM     23  N1  UNK     1       1.615  36.884 239.049  1.00  0.00    -0.287 N 
ATOM     24  C3  UNK     1       2.790  36.316 238.796  1.00  0.00     0.287 C 
ATOM     25  H1  UNK     1       1.106  36.766 239.902  1.00  0.00     0.172 HD
ATOM     26  S1  UNK     1       3.485  36.737 237.341  1.00  0.00    -0.054 SA
ATOM     27  O2  UNK     1       3.348  35.538 239.547  1.00  0.00    -0.260 OA
ENDBRANCH  19  20
ENDBRANCH   1  19
TORSDOF 7
ENDMDL
MODEL 9
REMARK VINA RESULT:      -6.3      5.883      8.395
REMARK  7 active torsions:
REMARK  status: ('A' for Active; 'I' for Inactive)
REMARK    1  A    between atoms: C2_4  and  C4_8 
REMARK    2  A    between atoms: C4_8  and  C6_10 
REMARK    3  A    between atoms: C9_13  and  O3_16 
REMARK    4  A    between atoms: O3_16  and  C12_17 
REMARK    5  A    between atoms: C12_17  and  C13_18 
REMARK    6  A    between atoms: C13_18  and  C19_26 
REMARK    7  A    between atoms: C15_20  and  C16_21 
ROOT
ATOM      1  C6  UNK     1       0.792  36.088 234.123  1.00  0.00    -0.056 A 
ATOM      2  C7  UNK     1       0.343  34.888 233.578  1.00  0.00     0.010 A 
ATOM      3  C8  UNK     1       0.255  34.728 232.205  1.00  0.00     0.037 A 
ATOM      4  C9  UNK     1       0.617  35.778 231.374  1.00  0.00     0.068 A 
ATOM      5  C10 UNK     1       1.075  36.981 231.918  1.00  0.00     0.037 A 
ATOM      6  C11 UNK     1       1.169  37.141 233.293  1.00  0.00     0.010 A 
ENDROOT
BRANCH   4   7
ATOM      7  O3  UNK     1       0.555  35.586 230.049  1.00  0.00    -0.351 OA
BRANCH   7   8
ATOM      8  C12 UNK     1      -0.665  35.476 229.304  1.00  0.00     0.181 C 
BRANCH   8   9
ATOM      9  C13 UNK     1      -0.307  35.843 227.883  1.00  0.00     0.083 C 
BRANCH   9  10
ATOM     10  C19 UNK     1       0.360  34.710 227.153  1.00  0.00     0.011 A 
ATOM     11  N2  UNK     1       0.909  33.741 227.893  1.00  0.00    -0.369 N 
ATOM     12  C17 UNK     1       1.482  32.649 227.361  1.00  0.00     0.095 A 
ATOM     13  H2  UNK     1       0.893  33.836 228.909  1.00  0.00     0.165 HD
ATOM     14  C16 UNK     1       1.558  32.469 226.009  1.00  0.00    -0.043 A 
ATOM     15  C5  UNK     1       1.022  33.483 225.208  1.00  0.00     0.010 A 
ATOM     16  C18 UNK     1       0.405  34.578 225.782  1.00  0.00     0.025 A 
BRANCH  14  17
ATOM     17  C15 UNK     1       2.161  31.233 225.389  1.00  0.00     0.035 C 
ATOM     18  C14 UNK     1       2.556  31.584 223.953  1.00  0.00     0.010 C 
ENDBRANCH  14  17
ENDBRANCH   9  10
ENDBRANCH   8   9
ENDBRANCH   7   8
ENDBRANCH   4   7
BRANCH   1  19
ATOM     19  C4  UNK     1       0.863  36.213 235.625  1.00  0.00     0.063 C 
BRANCH  19  20
ATOM     20  C2  UNK     1       2.015  37.109 236.091  1.00  0.00     0.153 C 
ATOM     21  C1  UNK     1       3.060  36.358 236.855  1.00  0.00     0.239 C 
ATOM     22  O1  UNK     1       3.166  35.148 236.830  1.00  0.00    -0.272 OA
ATOM     23  N1  UNK     1       3.814  37.197 237.553  1.00  0.00    -0.287 N 
ATOM     24  C3  UNK     1       3.192  38.353 237.768  1.00  0.00     0.287 C 
ATOM     25  H1  UNK     1       4.737  36.988 237.877  1.00  0.00     0.172 HD
ATOM     26  S1  UNK     1       1.624  38.431 237.208  1.00  0.00    -0.054 SA
ATOM     27  O2  UNK     1       3.698  39.307 238.328  1.00  0.00    -0.260 OA
ENDBRANCH  19  20
ENDBRANCH   1  19
TORSDOF 7
ENDMDL
