MODEL 1
REMARK VINA RESULT:      -7.0      0.000      0.000
REMARK  5 active torsions:
REMARK  status: ('A' for Active; 'I' for Inactive)
REMARK    1  A    between atoms: O1_1  and  C1_2 
REMARK    2  A    between atoms: C1_2  and  C2_3 
REMARK    3  A    between atoms: C1_2  and  C11_13 
REMARK    4  A    between atoms: C6_8  and  C7_9 
REMARK    5  A    between atoms: C19_23  and  O2_24 
ROOT
ATOM      1  C11 UNK     1       2.901  35.824 237.653  1.00  0.00    -0.014 A 
ATOM      2  C12 UNK     1       2.760  36.336 238.915  1.00  0.00     0.027 A 
ATOM      3  C13 UNK     1       2.836  35.495 240.013  1.00  0.00     0.089 A 
ATOM      4  N2  UNK     1       3.052  34.192 239.946  1.00  0.00    -0.365 N 
ATOM      5  H2  UNK     1       3.113  33.618 240.786  1.00  0.00     0.165 HD
ATOM      6  C14 UNK     1       3.191  33.649 238.694  1.00  0.00     0.043 A 
ATOM      7  C15 UNK     1       3.116  34.423 237.508  1.00  0.00     0.002 A 
ATOM      8  C16 UNK     1       3.228  33.765 236.253  1.00  0.00     0.051 A 
ATOM      9  C17 UNK     1       3.432  32.262 238.586  1.00  0.00     0.033 A 
ATOM     10  C18 UNK     1       3.603  31.675 237.367  1.00  0.00     0.039 A 
ATOM     11  C19 UNK     1       3.444  32.416 236.202  1.00  0.00     0.069 A 
ENDROOT
BRANCH   1  12
ATOM     12  C1  UNK     1       2.833  36.739 236.439  1.00  0.00     0.185 C 
BRANCH  12  13
ATOM     13  O1  UNK     1       3.623  37.902 236.641  1.00  0.00    -0.389 OA
ATOM     14  H1  UNK     1       3.179  38.656 236.269  1.00  0.00     0.210 HD
ENDBRANCH  12  13
BRANCH  12  15
ATOM     15  C2  UNK     1       1.373  37.168 236.220  1.00  0.00     0.256 C 
ATOM     16  N1  UNK     1       0.481  36.027 235.905  1.00  0.00     0.096 N 
ATOM     17  C3  UNK     1      -0.918  36.452 236.051  1.00  0.00     0.273 C 
ATOM     18  C5  UNK     1       0.674  35.602 234.513  1.00  0.00     0.282 C 
ATOM     19  C4  UNK     1      -1.199  37.716 235.251  1.00  0.00     0.035 C 
ATOM     20  C9  UNK     1      -0.011  37.974 234.327  1.00  0.00    -0.001 C 
ATOM     21  C6  UNK     1       0.246  36.696 233.512  1.00  0.00     0.040 C 
ATOM     22  C10 UNK     1       1.205  38.294 235.196  1.00  0.00     0.044 C 
BRANCH  21  23
ATOM     23  C7  UNK     1       1.216  36.850 232.388  1.00  0.00    -0.030 C 
ATOM     24  C8  UNK     1       0.904  36.682 231.113  1.00  0.00     0.007 C 
ENDBRANCH  21  23
ENDBRANCH  12  15
ENDBRANCH   1  12
BRANCH  11  25
ATOM     25  O2  UNK     1       3.503  31.692 235.039  1.00  0.00    -0.356 OA
ATOM     26  C20 UNK     1       2.289  31.487 234.314  1.00  0.00     0.210 C 
ENDBRANCH  11  25
TORSDOF 5
ENDMDL
MODEL 2
REMARK VINA RESULT:      -6.8      3.045      7.131
REMARK  5 active torsions:
REMARK  status: ('A' for Active; 'I' for Inactive)
REMARK    1  A    between atoms: O1_1  and  C1_2 
REMARK    2  A    between atoms: C1_2  and  C2_3 
REMARK    3  A    between atoms: C1_2  and  C11_13 
REMARK    4  A    between atoms: C6_8  and  C7_9 
REMARK    5  A    between atoms: C19_23  and  O2_24 
ROOT
ATOM      1  C11 UNK     1       0.010  37.330 233.537  1.00  0.00    -0.014 A 
ATOM      2  C12 UNK     1       1.054  36.895 232.765  1.00  0.00     0.027 A 
ATOM      3  C13 UNK     1       0.849  36.615 231.424  1.00  0.00     0.089 A 
ATOM      4  N2  UNK     1      -0.308  36.748 230.798  1.00  0.00    -0.365 N 
ATOM      5  H2  UNK     1      -0.403  36.541 229.804  1.00  0.00     0.165 HD
ATOM      6  C14 UNK     1      -1.374  37.177 231.547  1.00  0.00     0.043 A 
ATOM      7  C15 UNK     1      -1.271  37.476 232.930  1.00  0.00     0.002 A 
ATOM      8  C16 UNK     1      -2.440  37.872 233.633  1.00  0.00     0.051 A 
ATOM      9  C17 UNK     1      -2.623  37.339 230.908  1.00  0.00     0.033 A 
ATOM     10  C18 UNK     1      -3.709  37.786 231.600  1.00  0.00     0.039 A 
ATOM     11  C19 UNK     1      -3.630  37.997 232.972  1.00  0.00     0.069 A 
ENDROOT
BRANCH   1  12
ATOM     12  C1  UNK     1       0.223  37.654 235.009  1.00  0.00     0.185 C 
BRANCH  12  13
ATOM     13  O1  UNK     1       0.583  39.018 235.176  1.00  0.00    -0.389 OA
ATOM     14  H1  UNK     1       0.150  39.545 234.515  1.00  0.00     0.210 HD
ENDBRANCH  12  13
BRANCH  12  15
ATOM     15  C2  UNK     1       1.362  36.776 235.551  1.00  0.00     0.256 C 
ATOM     16  N1  UNK     1       0.923  35.885 236.652  1.00  0.00     0.096 N 
ATOM     17  C3  UNK     1       1.947  34.854 236.877  1.00  0.00     0.273 C 
ATOM     18  C5  UNK     1       0.780  36.649 237.897  1.00  0.00     0.282 C 
ATOM     19  C4  UNK     1       3.323  35.475 237.074  1.00  0.00     0.035 C 
ATOM     20  C9  UNK     1       3.150  36.981 237.257  1.00  0.00    -0.001 C 
ATOM     21  C6  UNK     1       2.132  37.209 238.388  1.00  0.00     0.040 C 
ATOM     22  C10 UNK     1       2.616  37.561 235.948  1.00  0.00     0.044 C 
BRANCH  21  23
ATOM     23  C7  UNK     1       2.024  38.620 238.864  1.00  0.00    -0.030 C 
ATOM     24  C8  UNK     1       0.986  39.404 238.625  1.00  0.00     0.007 C 
ENDBRANCH  21  23
ENDBRANCH  12  15
ENDBRANCH   1  12
BRANCH  11  25
ATOM     25  O2  UNK     1      -4.817  38.312 233.582  1.00  0.00    -0.356 OA
ATOM     26  C20 UNK     1      -5.217  37.537 234.713  1.00  0.00     0.210 C 
ENDBRANCH  11  25
TORSDOF 5
ENDMDL
MODEL 3
REMARK VINA RESULT:      -6.5      6.012     10.457
REMARK  5 active torsions:
REMARK  status: ('A' for Active; 'I' for Inactive)
REMARK    1  A    between atoms: O1_1  and  C1_2 
REMARK    2  A    between atoms: C1_2  and  C2_3 
REMARK    3  A    between atoms: C1_2  and  C11_13 
REMARK    4  A    between atoms: C6_8  and  C7_9 
REMARK    5  A    between atoms: C19_23  and  O2_24 
ROOT
ATOM      1  C11 UNK     1      -1.974  40.503 229.419  1.00  0.00    -0.014 A 
ATOM      2  C12 UNK     1      -3.280  40.281 229.074  1.00  0.00     0.027 A 
ATOM      3  C13 UNK     1      -3.905  41.120 228.165  1.00  0.00     0.089 A 
ATOM      4  N2  UNK     1      -3.323  42.148 227.571  1.00  0.00    -0.365 N 
ATOM      5  H2  UNK     1      -3.823  42.728 226.898  1.00  0.00     0.165 HD
ATOM      6  C14 UNK     1      -2.016  42.398 227.901  1.00  0.00     0.043 A 
ATOM      7  C15 UNK     1      -1.293  41.607 228.830  1.00  0.00     0.002 A 
ATOM      8  C16 UNK     1       0.045  41.969 229.143  1.00  0.00     0.051 A 
ATOM      9  C17 UNK     1      -1.360  43.483 227.278  1.00  0.00     0.033 A 
ATOM     10  C18 UNK     1      -0.053  43.760 227.551  1.00  0.00     0.039 A 
ATOM     11  C19 UNK     1       0.629  43.040 228.524  1.00  0.00     0.069 A 
ENDROOT
BRANCH   1  12
ATOM     12  C1  UNK     1      -1.272  39.581 230.406  1.00  0.00     0.185 C 
BRANCH  12  13
ATOM     13  O1  UNK     1      -0.392  38.695 229.728  1.00  0.00    -0.389 OA
ATOM     14  H1  UNK     1      -0.899  38.051 229.247  1.00  0.00     0.210 HD
ENDBRANCH  12  13
BRANCH  12  15
ATOM     15  C2  UNK     1      -2.329  38.751 231.150  1.00  0.00     0.256 C 
ATOM     16  N1  UNK     1      -2.365  39.037 232.604  1.00  0.00     0.096 N 
ATOM     17  C3  UNK     1      -3.600  38.482 233.176  1.00  0.00     0.273 C 
ATOM     18  C5  UNK     1      -1.233  38.389 233.276  1.00  0.00     0.282 C 
ATOM     19  C4  UNK     1      -3.765  37.013 232.815  1.00  0.00     0.035 C 
ATOM     20  C9  UNK     1      -2.453  36.514 232.215  1.00  0.00    -0.001 C 
ATOM     21  C6  UNK     1      -1.321  36.851 233.199  1.00  0.00     0.040 C 
ATOM     22  C10 UNK     1      -2.230  37.244 230.891  1.00  0.00     0.044 C 
BRANCH  21  23
ATOM     23  C7  UNK     1      -0.004  36.221 232.883  1.00  0.00    -0.030 C 
ATOM     24  C8  UNK     1       1.057  36.892 232.467  1.00  0.00     0.007 C 
ENDBRANCH  21  23
ENDBRANCH  12  15
ENDBRANCH   1  12
BRANCH  11  25
ATOM     25  O2  UNK     1       1.890  43.497 228.810  1.00  0.00    -0.356 OA
ATOM     26  C20 UNK     1       2.068  44.902 228.994  1.00  0.00     0.210 C 
ENDBRANCH  11  25
TORSDOF 5
ENDMDL
MODEL 4
REMARK VINA RESULT:      -6.4      2.599      6.526
REMARK  5 active torsions:
REMARK  status: ('A' for Active; 'I' for Inactive)
REMARK    1  A    between atoms: O1_1  and  C1_2 
REMARK    2  A    between atoms: C1_2  and  C2_3 
REMARK    3  A    between atoms: C1_2  and  C11_13 
REMARK    4  A    between atoms: C6_8  and  C7_9 
REMARK    5  A    between atoms: C19_23  and  O2_24 
ROOT
ATOM      1  C11 UNK     1      -0.123  37.498 233.747  1.00  0.00    -0.014 A 
ATOM      2  C12 UNK     1      -1.027  38.326 234.357  1.00  0.00     0.027 A 
ATOM      3  C13 UNK     1      -2.000  38.960 233.602  1.00  0.00     0.089 A 
ATOM      4  N2  UNK     1      -2.145  38.819 232.295  1.00  0.00    -0.365 N 
ATOM      5  H2  UNK     1      -2.888  39.297 231.787  1.00  0.00     0.165 HD
ATOM      6  C14 UNK     1      -1.251  37.999 231.656  1.00  0.00     0.043 A 
ATOM      7  C15 UNK     1      -0.210  37.317 232.337  1.00  0.00     0.002 A 
ATOM      8  C16 UNK     1       0.696  36.524 231.583  1.00  0.00     0.051 A 
ATOM      9  C17 UNK     1      -1.382  37.818 230.261  1.00  0.00     0.033 A 
ATOM     10  C18 UNK     1      -0.535  36.995 229.580  1.00  0.00     0.039 A 
ATOM     11  C19 UNK     1       0.536  36.395 230.232  1.00  0.00     0.069 A 
ENDROOT
BRANCH   1  12
ATOM     12  C1  UNK     1       0.943  36.785 234.567  1.00  0.00     0.185 C 
BRANCH  12  13
ATOM     13  O1  UNK     1       0.603  35.419 234.756  1.00  0.00    -0.389 OA
ATOM     14  H1  UNK     1       1.349  34.873 234.541  1.00  0.00     0.210 HD
ENDBRANCH  12  13
BRANCH  12  15
ATOM     15  C2  UNK     1       1.046  37.461 235.943  1.00  0.00     0.256 C 
ATOM     16  N1  UNK     1       2.378  38.064 236.187  1.00  0.00     0.096 N 
ATOM     17  C3  UNK     1       2.295  38.970 237.342  1.00  0.00     0.273 C 
ATOM     18  C5  UNK     1       3.357  37.019 236.512  1.00  0.00     0.282 C 
ATOM     19  C4  UNK     1       1.684  38.273 238.549  1.00  0.00     0.035 C 
ATOM     20  C9  UNK     1       1.617  36.776 238.257  1.00  0.00    -0.001 C 
ATOM     21  C6  UNK     1       3.022  36.309 237.840  1.00  0.00     0.040 C 
ATOM     22  C10 UNK     1       0.631  36.559 237.110  1.00  0.00     0.044 C 
BRANCH  21  23
ATOM     23  C7  UNK     1       3.193  34.828 237.752  1.00  0.00    -0.030 C 
ATOM     24  C8  UNK     1       3.275  34.159 236.614  1.00  0.00     0.007 C 
ENDBRANCH  21  23
ENDBRANCH  12  15
ENDBRANCH   1  12
BRANCH  11  25
ATOM     25  O2  UNK     1       1.397  35.702 229.419  1.00  0.00    -0.356 OA
ATOM     26  C20 UNK     1       0.872  34.612 228.661  1.00  0.00     0.210 C 
ENDBRANCH  11  25
TORSDOF 5
ENDMDL
MODEL 5
REMARK VINA RESULT:      -6.4      1.639      2.451
REMARK  5 active torsions:
REMARK  status: ('A' for Active; 'I' for Inactive)
REMARK    1  A    between atoms: O1_1  and  C1_2 
REMARK    2  A    between atoms: C1_2  and  C2_3 
REMARK    3  A    between atoms: C1_2  and  C11_13 
REMARK    4  A    between atoms: C6_8  and  C7_9 
REMARK    5  A    between atoms: C19_23  and  O2_24 
ROOT
ATOM      1  C11 UNK     1       1.997  37.570 236.913  1.00  0.00    -0.014 A 
ATOM      2  C12 UNK     1       1.773  38.800 237.473  1.00  0.00     0.027 A 
ATOM      3  C13 UNK     1       1.894  38.965 238.843  1.00  0.00     0.089 A 
ATOM      4  N2  UNK     1       2.232  38.005 239.687  1.00  0.00    -0.365 N 
ATOM      5  H2  UNK     1       2.321  38.182 240.687  1.00  0.00     0.165 HD
ATOM      6  C14 UNK     1       2.457  36.761 239.156  1.00  0.00     0.043 A 
ATOM      7  C15 UNK     1       2.345  36.486 237.769  1.00  0.00     0.002 A 
ATOM      8  C16 UNK     1       2.555  35.156 237.316  1.00  0.00     0.051 A 
ATOM      9  C17 UNK     1       2.829  35.715 240.028  1.00  0.00     0.033 A 
ATOM     10  C18 UNK     1       3.089  34.464 239.549  1.00  0.00     0.039 A 
ATOM     11  C19 UNK     1       2.896  34.174 238.204  1.00  0.00     0.069 A 
ENDROOT
BRANCH   1  12
ATOM     12  C1  UNK     1       1.880  37.377 235.408  1.00  0.00     0.185 C 
BRANCH  12  13
ATOM     13  O1  UNK     1       2.388  38.509 234.714  1.00  0.00    -0.389 OA
ATOM     14  H1  UNK     1       1.718  38.854 234.136  1.00  0.00     0.210 HD
ENDBRANCH  12  13
BRANCH  12  15
ATOM     15  C2  UNK     1       0.398  37.202 235.042  1.00  0.00     0.256 C 
ATOM     16  N1  UNK     1       0.033  35.787 234.792  1.00  0.00     0.096 N 
ATOM     17  C3  UNK     1      -1.431  35.657 234.794  1.00  0.00     0.273 C 
ATOM     18  C5  UNK     1       0.516  35.364 233.472  1.00  0.00     0.282 C 
ATOM     19  C4  UNK     1      -2.076  36.656 233.842  1.00  0.00     0.035 C 
ATOM     20  C9  UNK     1      -0.979  37.276 232.981  1.00  0.00    -0.001 C 
ATOM     21  C6  UNK     1      -0.180  36.134 232.331  1.00  0.00     0.040 C 
ATOM     22  C10 UNK     1      -0.068  38.099 233.891  1.00  0.00     0.044 C 
BRANCH  21  23
ATOM     23  C7  UNK     1       0.776  36.561 231.266  1.00  0.00    -0.030 C 
ATOM     24  C8  UNK     1       0.864  35.987 230.077  1.00  0.00     0.007 C 
ENDBRANCH  21  23
ENDBRANCH  12  15
ENDBRANCH   1  12
BRANCH  11  25
ATOM     25  O2  UNK     1       3.056  32.854 237.865  1.00  0.00    -0.356 OA
ATOM     26  C20 UNK     1       3.393  32.546 236.512  1.00  0.00     0.210 C 
ENDBRANCH  11  25
TORSDOF 5
ENDMDL
MODEL 6
REMARK VINA RESULT:      -6.2      2.756      4.522
REMARK  5 active torsions:
REMARK  status: ('A' for Active; 'I' for Inactive)
REMARK    1  A    between atoms: O1_1  and  C1_2 
REMARK    2  A    between atoms: C1_2  and  C2_3 
REMARK    3  A    between atoms: C1_2  and  C11_13 
REMARK    4  A    between atoms: C6_8  and  C7_9 
REMARK    5  A    between atoms: C19_23  and  O2_24 
ROOT
ATOM      1  C11 UNK     1       1.703  34.297 237.346  1.00  0.00    -0.014 A 
ATOM      2  C12 UNK     1       0.976  34.253 236.187  1.00  0.00     0.027 A 
ATOM      3  C13 UNK     1       1.176  33.220 235.286  1.00  0.00     0.089 A 
ATOM      4  N2  UNK     1       2.032  32.228 235.461  1.00  0.00    -0.365 N 
ATOM      5  H2  UNK     1       2.131  31.482 234.773  1.00  0.00     0.165 HD
ATOM      6  C14 UNK     1       2.778  32.247 236.611  1.00  0.00     0.043 A 
ATOM      7  C15 UNK     1       2.659  33.268 237.588  1.00  0.00     0.002 A 
ATOM      8  C16 UNK     1       3.507  33.228 238.727  1.00  0.00     0.051 A 
ATOM      9  C17 UNK     1       3.696  31.197 236.835  1.00  0.00     0.033 A 
ATOM     10  C18 UNK     1       4.446  31.154 237.973  1.00  0.00     0.039 A 
ATOM     11  C19 UNK     1       4.392  32.198 238.889  1.00  0.00     0.069 A 
ENDROOT
BRANCH   1  12
ATOM     12  C1  UNK     1       1.485  35.419 238.350  1.00  0.00     0.185 C 
BRANCH  12  13
ATOM     13  O1  UNK     1       0.315  35.184 239.121  1.00  0.00    -0.389 OA
ATOM     14  H1  UNK     1       0.481  35.410 240.028  1.00  0.00     0.210 HD
ENDBRANCH  12  13
BRANCH  12  15
ATOM     15  C2  UNK     1       1.313  36.742 237.588  1.00  0.00     0.256 C 
ATOM     16  N1  UNK     1       2.464  37.050 236.706  1.00  0.00     0.096 N 
ATOM     17  C3  UNK     1       2.085  38.119 235.771  1.00  0.00     0.273 C 
ATOM     18  C5  UNK     1       3.597  37.536 237.503  1.00  0.00     0.282 C 
ATOM     19  C4  UNK     1       1.512  39.321 236.509  1.00  0.00     0.035 C 
ATOM     20  C9  UNK     1       1.779  39.143 238.001  1.00  0.00    -0.001 C 
ATOM     21  C6  UNK     1       3.283  38.883 238.188  1.00  0.00     0.040 C 
ATOM     22  C10 UNK     1       0.976  37.936 238.486  1.00  0.00     0.044 C 
BRANCH  21  23
ATOM     23  C7  UNK     1       3.758  38.926 239.603  1.00  0.00    -0.030 C 
ATOM     24  C8  UNK     1       4.165  37.864 240.280  1.00  0.00     0.007 C 
ENDBRANCH  21  23
ENDBRANCH  12  15
ENDBRANCH   1  12
BRANCH  11  25
ATOM     25  O2  UNK     1       5.289  32.112 239.923  1.00  0.00    -0.356 OA
ATOM     26  C20 UNK     1       4.830  31.576 241.165  1.00  0.00     0.210 C 
ENDBRANCH  11  25
TORSDOF 5
ENDMDL
MODEL 7
REMARK VINA RESULT:      -6.0      5.740     10.416
REMARK  5 active torsions:
REMARK  status: ('A' for Active; 'I' for Inactive)
REMARK    1  A    between atoms: O1_1  and  C1_2 
REMARK    2  A    between atoms: C1_2  and  C2_3 
REMARK    3  A    between atoms: C1_2  and  C11_13 
REMARK    4  A    between atoms: C6_8  and  C7_9 
REMARK    5  A    between atoms: C19_23  and  O2_24 
ROOT
ATOM      1  C11 UNK     1      -2.901  40.078 229.555  1.00  0.00    -0.014 A 
ATOM      2  C12 UNK     1      -4.185  39.968 229.094  1.00  0.00     0.027 A 
ATOM      3  C13 UNK     1      -4.647  40.845 228.126  1.00  0.00     0.089 A 
ATOM      4  N2  UNK     1      -3.924  41.807 227.579  1.00  0.00    -0.365 N 
ATOM      5  H2  UNK     1      -4.307  42.419 226.858  1.00  0.00     0.165 HD
ATOM      6  C14 UNK     1      -2.635  41.945 228.025  1.00  0.00     0.043 A 
ATOM      7  C15 UNK     1      -2.072  41.108 229.022  1.00  0.00     0.002 A 
ATOM      8  C16 UNK     1      -0.741  41.355 229.453  1.00  0.00     0.051 A 
ATOM      9  C17 UNK     1      -1.831  42.957 227.456  1.00  0.00     0.033 A 
ATOM     10  C18 UNK     1      -0.534  43.122 227.845  1.00  0.00     0.039 A 
ATOM     11  C19 UNK     1      -0.010  42.359 228.882  1.00  0.00     0.069 A 
ENDROOT
BRANCH   1  12
ATOM     12  C1  UNK     1      -2.376  39.113 230.608  1.00  0.00     0.185 C 
BRANCH  12  13
ATOM     13  O1  UNK     1      -1.370  39.731 231.400  1.00  0.00    -0.389 OA
ATOM     14  H1  UNK     1      -1.289  39.270 232.226  1.00  0.00     0.210 HD
ENDBRANCH  12  13
BRANCH  12  15
ATOM     15  C2  UNK     1      -1.766  37.891 229.904  1.00  0.00     0.256 C 
ATOM     16  N1  UNK     1      -2.132  36.611 230.556  1.00  0.00     0.096 N 
ATOM     17  C3  UNK     1      -1.813  35.498 229.651  1.00  0.00     0.273 C 
ATOM     18  C5  UNK     1      -1.349  36.425 231.783  1.00  0.00     0.282 C 
ATOM     19  C4  UNK     1      -0.371  35.574 229.168  1.00  0.00     0.035 C 
ATOM     20  C9  UNK     1       0.361  36.620 230.004  1.00  0.00    -0.001 C 
ATOM     21  C6  UNK     1       0.157  36.273 231.488  1.00  0.00     0.040 C 
ATOM     22  C10 UNK     1      -0.251  37.987 229.698  1.00  0.00     0.044 C 
BRANCH  21  23
ATOM     23  C7  UNK     1       1.005  37.051 232.439  1.00  0.00    -0.030 C 
ATOM     24  C8  UNK     1       0.967  36.905 233.753  1.00  0.00     0.007 C 
ENDBRANCH  21  23
ENDBRANCH  12  15
ENDBRANCH   1  12
BRANCH  11  25
ATOM     25  O2  UNK     1       1.256  42.706 229.278  1.00  0.00    -0.356 OA
ATOM     26  C20 UNK     1       2.273  42.788 228.277  1.00  0.00     0.210 C 
ENDBRANCH  11  25
TORSDOF 5
ENDMDL
MODEL 8
REMARK VINA RESULT:      -5.9      2.104      6.161
REMARK  5 active torsions:
REMARK  status: ('A' for Active; 'I' for Inactive)
REMARK    1  A    between atoms: O1_1  and  C1_2 
REMARK    2  A    between atoms: C1_2  and  C2_3 
REMARK    3  A    between atoms: C1_2  and  C11_13 
REMARK    4  A    between atoms: C6_8  and  C7_9 
REMARK    5  A    between atoms: C19_23  and  O2_24 
ROOT
ATOM      1  C11 UNK     1       1.572  35.808 236.034  1.00  0.00    -0.014 A 
ATOM      2  C12 UNK     1       0.991  35.926 234.800  1.00  0.00     0.027 A 
ATOM      3  C13 UNK     1       0.569  37.168 234.352  1.00  0.00     0.089 A 
ATOM      4  N2  UNK     1       0.694  38.293 235.035  1.00  0.00    -0.365 N 
ATOM      5  H2  UNK     1       0.379  39.185 234.655  1.00  0.00     0.165 HD
ATOM      6  C14 UNK     1       1.268  38.205 236.278  1.00  0.00     0.043 A 
ATOM      7  C15 UNK     1       1.719  36.980 236.832  1.00  0.00     0.002 A 
ATOM      8  C16 UNK     1       2.260  36.980 238.145  1.00  0.00     0.051 A 
ATOM      9  C17 UNK     1       1.426  39.390 237.031  1.00  0.00     0.033 A 
ATOM     10  C18 UNK     1       2.012  39.362 238.262  1.00  0.00     0.039 A 
ATOM     11  C19 UNK     1       2.376  38.152 238.840  1.00  0.00     0.069 A 
ENDROOT
BRANCH   1  12
ATOM     12  C1  UNK     1       2.052  34.453 236.532  1.00  0.00     0.185 C 
BRANCH  12  13
ATOM     13  O1  UNK     1       3.465  34.352 236.433  1.00  0.00    -0.389 OA
ATOM     14  H1  UNK     1       3.870  34.922 237.075  1.00  0.00     0.210 HD
ENDBRANCH  12  13
BRANCH  12  15
ATOM     15  C2  UNK     1       1.418  33.352 235.667  1.00  0.00     0.256 C 
ATOM     16  N1  UNK     1       0.534  32.450 236.443  1.00  0.00     0.096 N 
ATOM     17  C3  UNK     1      -0.288  31.661 235.514  1.00  0.00     0.273 C 
ATOM     18  C5  UNK     1       1.337  31.510 237.234  1.00  0.00     0.282 C 
ATOM     19  C4  UNK     1       0.573  30.962 234.471  1.00  0.00     0.035 C 
ATOM     20  C9  UNK     1       2.034  31.076 234.898  1.00  0.00    -0.001 C 
ATOM     21  C6  UNK     1       2.151  30.552 236.340  1.00  0.00     0.040 C 
ATOM     22  C10 UNK     1       2.431  32.550 234.844  1.00  0.00     0.044 C 
BRANCH  21  23
ATOM     23  C7  UNK     1       3.549  30.365 236.830  1.00  0.00    -0.030 C 
ATOM     24  C8  UNK     1       4.115  31.120 237.758  1.00  0.00     0.007 C 
ENDBRANCH  21  23
ENDBRANCH  12  15
ENDBRANCH   1  12
BRANCH  11  25
ATOM     25  O2  UNK     1       2.827  38.236 240.132  1.00  0.00    -0.356 OA
ATOM     26  C20 UNK     1       4.219  38.021 240.371  1.00  0.00     0.210 C 
ENDBRANCH  11  25
TORSDOF 5
ENDMDL
MODEL 9
REMARK VINA RESULT:      -5.9      2.708      6.459
REMARK  5 active torsions:
REMARK  status: ('A' for Active; 'I' for Inactive)
REMARK    1  A    between atoms: O1_1  and  C1_2 
REMARK    2  A    between atoms: C1_2  and  C2_3 
REMARK    3  A    between atoms: C1_2  and  C11_13 
REMARK    4  A    between atoms: C6_8  and  C7_9 
REMARK    5  A    between atoms: C19_23  and  O2_24 
ROOT
ATOM      1  C11 UNK     1      -0.562  37.677 235.057  1.00  0.00    -0.014 A 
ATOM      2  C12 UNK     1      -0.313  38.000 233.750  1.00  0.00     0.027 A 
ATOM      3  C13 UNK     1      -1.229  37.659 232.768  1.00  0.00     0.089 A 
ATOM      4  N2  UNK     1      -2.373  37.035 232.994  1.00  0.00    -0.365 N 
ATOM      5  H2  UNK     1      -3.020  36.819 232.237  1.00  0.00     0.165 HD
ATOM      6  C14 UNK     1      -2.648  36.694 234.293  1.00  0.00     0.043 A 
ATOM      7  C15 UNK     1      -1.769  36.985 235.368  1.00  0.00     0.002 A 
ATOM      8  C16 UNK     1      -2.118  36.553 236.675  1.00  0.00     0.051 A 
ATOM      9  C17 UNK     1      -3.866  36.035 234.572  1.00  0.00     0.033 A 
ATOM     10  C18 UNK     1      -4.200  35.695 235.850  1.00  0.00     0.039 A 
ATOM     11  C19 UNK     1      -3.302  35.903 236.890  1.00  0.00     0.069 A 
ENDROOT
BRANCH   1  12
ATOM     12  C1  UNK     1       0.429  38.058 236.147  1.00  0.00     0.185 C 
BRANCH  12  13
ATOM     13  O1  UNK     1       1.088  39.275 235.825  1.00  0.00    -0.389 OA
ATOM     14  H1  UNK     1       0.516  39.813 235.291  1.00  0.00     0.210 HD
ENDBRANCH  12  13
BRANCH  12  15
ATOM     15  C2  UNK     1       1.484  36.946 236.270  1.00  0.00     0.256 C 
ATOM     16  N1  UNK     1       1.121  35.920 237.276  1.00  0.00     0.096 N 
ATOM     17  C3  UNK     1       1.977  34.740 237.094  1.00  0.00     0.273 C 
ATOM     18  C5  UNK     1       1.354  36.434 238.631  1.00  0.00     0.282 C 
ATOM     19  C4  UNK     1       3.451  35.122 237.081  1.00  0.00     0.035 C 
ATOM     20  C9  UNK     1       3.576  36.571 237.547  1.00  0.00    -0.001 C 
ATOM     21  C6  UNK     1       2.850  36.702 238.896  1.00  0.00     0.040 C 
ATOM     22  C10 UNK     1       2.906  37.464 236.504  1.00  0.00     0.044 C 
BRANCH  21  23
ATOM     23  C7  UNK     1       3.079  37.991 239.612  1.00  0.00    -0.030 C 
ATOM     24  C8  UNK     1       4.274  38.518 239.825  1.00  0.00     0.007 C 
ENDBRANCH  21  23
ENDBRANCH  12  15
ENDBRANCH   1  12
BRANCH  11  25
ATOM     25  O2  UNK     1      -3.690  35.397 238.104  1.00  0.00    -0.356 OA
ATOM     26  C20 UNK     1      -2.747  34.614 238.837  1.00  0.00     0.210 C 
ENDBRANCH  11  25
TORSDOF 5
ENDMDL
