MODEL 1
REMARK VINA RESULT:      -6.8      0.000      0.000
REMARK  5 active torsions:
REMARK  status: ('A' for Active; 'I' for Inactive)
REMARK    1  A    between atoms: O1_1  and  C1_2 
REMARK    2  A    between atoms: C1_2  and  C2_3 
REMARK    3  A    between atoms: C1_2  and  C11_13 
REMARK    4  A    between atoms: C6_8  and  C7_9 
REMARK    5  A    between atoms: C19_23  and  O2_24 
ROOT
ATOM      1  C11 UNK     1      -2.366  41.963 228.532  1.00  0.00    -0.014 A 
ATOM      2  C12 UNK     1      -3.071  41.901 227.357  1.00  0.00     0.027 A 
ATOM      3  C13 UNK     1      -2.603  42.566 226.236  1.00  0.00     0.089 A 
ATOM      4  N2  UNK     1      -1.488  43.277 226.192  1.00  0.00    -0.365 N 
ATOM      5  H2  UNK     1      -1.183  43.739 225.335  1.00  0.00     0.165 HD
ATOM      6  C14 UNK     1      -0.759  43.366 227.353  1.00  0.00     0.043 A 
ATOM      7  C15 UNK     1      -1.163  42.738 228.557  1.00  0.00     0.002 A 
ATOM      8  C16 UNK     1      -0.380  42.938 229.721  1.00  0.00     0.051 A 
ATOM      9  C17 UNK     1       0.426  44.145 227.350  1.00  0.00     0.033 A 
ATOM     10  C18 UNK     1       1.158  44.308 228.491  1.00  0.00     0.039 A 
ATOM     11  C19 UNK     1       0.749  43.710 229.679  1.00  0.00     0.069 A 
ENDROOT
BRANCH   1  12
ATOM     12  C1  UNK     1      -2.836  41.187 229.753  1.00  0.00     0.185 C 
BRANCH  12  13
ATOM     13  O1  UNK     1      -4.255  41.078 229.783  1.00  0.00    -0.389 OA
ATOM     14  H1  UNK     1      -4.613  41.768 230.329  1.00  0.00     0.210 HD
ENDBRANCH  12  13
BRANCH  12  15
ATOM     15  C2  UNK     1      -2.198  39.782 229.761  1.00  0.00     0.256 C 
ATOM     16  N1  UNK     1      -1.712  39.371 231.095  1.00  0.00     0.096 N 
ATOM     17  C3  UNK     1      -2.811  38.814 231.898  1.00  0.00     0.273 C 
ATOM     18  C5  UNK     1      -0.714  38.308 230.893  1.00  0.00     0.282 C 
ATOM     19  C4  UNK     1      -3.315  37.498 231.305  1.00  0.00     0.035 C 
ATOM     20  C9  UNK     1      -2.764  37.376 229.889  1.00  0.00    -0.001 C 
ATOM     21  C6  UNK     1      -1.245  37.172 229.992  1.00  0.00     0.040 C 
ATOM     22  C10 UNK     1      -3.062  38.678 229.141  1.00  0.00     0.044 C 
BRANCH  21  23
ATOM     23  C7  UNK     1      -0.561  37.134 228.658  1.00  0.00    -0.030 C 
ATOM     24  C8  UNK     1      -0.375  36.078 227.896  1.00  0.00     0.007 C 
ENDBRANCH  21  23
ENDBRANCH  12  15
ENDBRANCH   1  12
BRANCH  11  25
ATOM     25  O2  UNK     1       1.504  43.943 230.799  1.00  0.00    -0.356 OA
ATOM     26  C20 UNK     1       2.917  43.983 230.650  1.00  0.00     0.210 C 
ENDBRANCH  11  25
TORSDOF 5
ENDMDL
MODEL 2
REMARK VINA RESULT:      -6.4      1.560      2.352
REMARK  5 active torsions:
REMARK  status: ('A' for Active; 'I' for Inactive)
REMARK    1  A    between atoms: O1_1  and  C1_2 
REMARK    2  A    between atoms: C1_2  and  C2_3 
REMARK    3  A    between atoms: C1_2  and  C11_13 
REMARK    4  A    between atoms: C6_8  and  C7_9 
REMARK    5  A    between atoms: C19_23  and  O2_24 
ROOT
ATOM      1  C11 UNK     1      -2.902  40.433 229.787  1.00  0.00    -0.014 A 
ATOM      2  C12 UNK     1      -3.961  40.040 229.009  1.00  0.00     0.027 A 
ATOM      3  C13 UNK     1      -4.167  40.631 227.773  1.00  0.00     0.089 A 
ATOM      4  N2  UNK     1      -3.397  41.572 227.251  1.00  0.00    -0.365 N 
ATOM      5  H2  UNK     1      -3.588  41.966 226.330  1.00  0.00     0.165 HD
ATOM      6  C14 UNK     1      -2.330  41.994 228.005  1.00  0.00     0.043 A 
ATOM      7  C15 UNK     1      -2.046  41.466 229.289  1.00  0.00     0.002 A 
ATOM      8  C16 UNK     1      -0.961  42.008 230.020  1.00  0.00     0.051 A 
ATOM      9  C17 UNK     1      -1.502  43.023 227.489  1.00  0.00     0.033 A 
ATOM     10  C18 UNK     1      -0.460  43.515 228.221  1.00  0.00     0.039 A 
ATOM     11  C19 UNK     1      -0.195  43.012 229.492  1.00  0.00     0.069 A 
ENDROOT
BRANCH   1  12
ATOM     12  C1  UNK     1      -2.631  39.748 231.118  1.00  0.00     0.185 C 
BRANCH  12  13
ATOM     13  O1  UNK     1      -3.841  39.394 231.775  1.00  0.00    -0.389 OA
ATOM     14  H1  UNK     1      -3.942  38.449 231.764  1.00  0.00     0.210 HD
ENDBRANCH  12  13
BRANCH  12  15
ATOM     15  C2  UNK     1      -1.762  38.493 230.895  1.00  0.00     0.256 C 
ATOM     16  N1  UNK     1      -2.533  37.234 230.950  1.00  0.00     0.096 N 
ATOM     17  C3  UNK     1      -3.165  36.956 229.651  1.00  0.00     0.273 C 
ATOM     18  C5  UNK     1      -1.583  36.146 231.233  1.00  0.00     0.282 C 
ATOM     19  C4  UNK     1      -2.116  36.659 228.580  1.00  0.00     0.035 C 
ATOM     20  C9  UNK     1      -0.757  37.098 229.114  1.00  0.00    -0.001 C 
ATOM     21  C6  UNK     1      -0.379  36.155 230.266  1.00  0.00     0.040 C 
ATOM     22  C10 UNK     1      -0.884  38.531 229.639  1.00  0.00     0.044 C 
BRANCH  21  23
ATOM     23  C7  UNK     1       0.899  36.537 230.949  1.00  0.00    -0.030 C 
ATOM     24  C8  UNK     1       1.072  36.757 232.234  1.00  0.00     0.007 C 
ENDBRANCH  21  23
ENDBRANCH  12  15
ENDBRANCH   1  12
BRANCH  11  25
ATOM     25  O2  UNK     1       0.840  43.573 230.193  1.00  0.00    -0.356 OA
ATOM     26  C20 UNK     1       2.114  43.628 229.566  1.00  0.00     0.210 C 
ENDBRANCH  11  25
TORSDOF 5
ENDMDL
MODEL 3
REMARK VINA RESULT:      -6.4      8.462     11.924
REMARK  5 active torsions:
REMARK  status: ('A' for Active; 'I' for Inactive)
REMARK    1  A    between atoms: O1_1  and  C1_2 
REMARK    2  A    between atoms: C1_2  and  C2_3 
REMARK    3  A    between atoms: C1_2  and  C11_13 
REMARK    4  A    between atoms: C6_8  and  C7_9 
REMARK    5  A    between atoms: C19_23  and  O2_24 
ROOT
ATOM      1  C11 UNK     1       1.940  34.077 237.744  1.00  0.00    -0.014 A 
ATOM      2  C12 UNK     1       2.819  33.667 238.714  1.00  0.00     0.027 A 
ATOM      3  C13 UNK     1       3.666  32.598 238.470  1.00  0.00     0.089 A 
ATOM      4  N2  UNK     1       3.711  31.915 237.339  1.00  0.00    -0.365 N 
ATOM      5  H2  UNK     1       4.363  31.141 237.208  1.00  0.00     0.165 HD
ATOM      6  C14 UNK     1       2.840  32.294 236.347  1.00  0.00     0.043 A 
ATOM      7  C15 UNK     1       1.921  33.362 236.504  1.00  0.00     0.002 A 
ATOM      8  C16 UNK     1       1.017  33.640 235.450  1.00  0.00     0.051 A 
ATOM      9  C17 UNK     1       2.840  31.564 235.131  1.00  0.00     0.033 A 
ATOM     10  C18 UNK     1       1.957  31.867 234.134  1.00  0.00     0.039 A 
ATOM     11  C19 UNK     1       1.040  32.902 234.298  1.00  0.00     0.069 A 
ENDROOT
BRANCH   1  12
ATOM     12  C1  UNK     1       1.050  35.288 237.976  1.00  0.00     0.185 C 
BRANCH  12  13
ATOM     13  O1  UNK     1       0.252  35.129 239.144  1.00  0.00    -0.389 OA
ATOM     14  H1  UNK     1      -0.655  35.320 238.936  1.00  0.00     0.210 HD
ENDBRANCH  12  13
BRANCH  12  15
ATOM     15  C2  UNK     1       1.913  36.561 238.094  1.00  0.00     0.256 C 
ATOM     16  N1  UNK     1       2.756  36.805 236.905  1.00  0.00     0.096 N 
ATOM     17  C3  UNK     1       1.986  37.494 235.857  1.00  0.00     0.273 C 
ATOM     18  C5  UNK     1       3.854  37.694 237.317  1.00  0.00     0.282 C 
ATOM     19  C4  UNK     1       1.603  38.908 236.292  1.00  0.00     0.035 C 
ATOM     20  C9  UNK     1       1.830  39.017 237.796  1.00  0.00    -0.001 C 
ATOM     21  C6  UNK     1       3.343  38.954 238.049  1.00  0.00     0.040 C 
ATOM     22  C10 UNK     1       1.142  37.829 238.476  1.00  0.00     0.044 C 
BRANCH  21  23
ATOM     23  C7  UNK     1       3.701  38.953 239.505  1.00  0.00    -0.030 C 
ATOM     24  C8  UNK     1       4.580  38.177 240.101  1.00  0.00     0.007 C 
ENDBRANCH  21  23
ENDBRANCH  12  15
ENDBRANCH   1  12
BRANCH  11  25
ATOM     25  O2  UNK     1       0.155  33.132 233.277  1.00  0.00    -0.356 OA
ATOM     26  C20 UNK     1       0.103  34.441 232.726  1.00  0.00     0.210 C 
ENDBRANCH  11  25
TORSDOF 5
ENDMDL
MODEL 4
REMARK VINA RESULT:      -6.3      9.525     12.900
REMARK  5 active torsions:
REMARK  status: ('A' for Active; 'I' for Inactive)
REMARK    1  A    between atoms: O1_1  and  C1_2 
REMARK    2  A    between atoms: C1_2  and  C2_3 
REMARK    3  A    between atoms: C1_2  and  C11_13 
REMARK    4  A    between atoms: C6_8  and  C7_9 
REMARK    5  A    between atoms: C19_23  and  O2_24 
ROOT
ATOM      1  C11 UNK     1       1.821  34.070 238.961  1.00  0.00    -0.014 A 
ATOM      2  C12 UNK     1       1.806  34.057 240.332  1.00  0.00     0.027 A 
ATOM      3  C13 UNK     1       2.538  33.104 241.022  1.00  0.00     0.089 A 
ATOM      4  N2  UNK     1       3.286  32.173 240.453  1.00  0.00    -0.365 N 
ATOM      5  H2  UNK     1       3.815  31.501 241.010  1.00  0.00     0.165 HD
ATOM      6  C14 UNK     1       3.320  32.152 239.081  1.00  0.00     0.043 A 
ATOM      7  C15 UNK     1       2.592  33.071 238.285  1.00  0.00     0.002 A 
ATOM      8  C16 UNK     1       2.637  32.934 236.876  1.00  0.00     0.051 A 
ATOM      9  C17 UNK     1       4.089  31.148 238.438  1.00  0.00     0.033 A 
ATOM     10  C18 UNK     1       4.113  31.052 237.076  1.00  0.00     0.039 A 
ATOM     11  C19 UNK     1       3.380  31.941 236.295  1.00  0.00     0.069 A 
ENDROOT
BRANCH   1  12
ATOM     12  C1  UNK     1       1.072  35.149 238.194  1.00  0.00     0.185 C 
BRANCH  12  13
ATOM     13  O1  UNK     1      -0.199  35.413 238.778  1.00  0.00    -0.389 OA
ATOM     14  H1  UNK     1      -0.579  36.184 238.374  1.00  0.00     0.210 HD
ENDBRANCH  12  13
BRANCH  12  15
ATOM     15  C2  UNK     1       1.912  36.442 238.150  1.00  0.00     0.256 C 
ATOM     16  N1  UNK     1       2.721  36.568 236.919  1.00  0.00     0.096 N 
ATOM     17  C3  UNK     1       1.913  37.123 235.822  1.00  0.00     0.273 C 
ATOM     18  C5  UNK     1       3.811  37.516 237.203  1.00  0.00     0.282 C 
ATOM     19  C4  UNK     1       1.513  38.570 236.109  1.00  0.00     0.035 C 
ATOM     20  C9  UNK     1       1.774  38.848 237.586  1.00  0.00    -0.001 C 
ATOM     21  C6  UNK     1       3.294  38.840 237.805  1.00  0.00     0.040 C 
ATOM     22  C10 UNK     1       1.126  37.731 238.409  1.00  0.00     0.044 C 
BRANCH  21  23
ATOM     23  C7  UNK     1       3.685  39.005 239.242  1.00  0.00    -0.030 C 
ATOM     24  C8  UNK     1       4.516  38.248 239.926  1.00  0.00     0.007 C 
ENDBRANCH  21  23
ENDBRANCH  12  15
ENDBRANCH   1  12
BRANCH  11  25
ATOM     25  O2  UNK     1       3.414  31.769 234.936  1.00  0.00    -0.356 OA
ATOM     26  C20 UNK     1       2.175  31.707 234.243  1.00  0.00     0.210 C 
ENDBRANCH  11  25
TORSDOF 5
ENDMDL
MODEL 5
REMARK VINA RESULT:      -6.2      5.750      9.203
REMARK  5 active torsions:
REMARK  status: ('A' for Active; 'I' for Inactive)
REMARK    1  A    between atoms: O1_1  and  C1_2 
REMARK    2  A    between atoms: C1_2  and  C2_3 
REMARK    3  A    between atoms: C1_2  and  C11_13 
REMARK    4  A    between atoms: C6_8  and  C7_9 
REMARK    5  A    between atoms: C19_23  and  O2_24 
ROOT
ATOM      1  C11 UNK     1      -1.155  37.213 234.021  1.00  0.00    -0.014 A 
ATOM      2  C12 UNK     1      -0.835  38.223 233.150  1.00  0.00     0.027 A 
ATOM      3  C13 UNK     1      -1.827  39.068 232.679  1.00  0.00     0.089 A 
ATOM      4  N2  UNK     1      -3.104  38.990 233.014  1.00  0.00    -0.365 N 
ATOM      5  H2  UNK     1      -3.793  39.647 232.645  1.00  0.00     0.165 HD
ATOM      6  C14 UNK     1      -3.462  37.987 233.880  1.00  0.00     0.043 A 
ATOM      7  C15 UNK     1      -2.526  37.060 234.403  1.00  0.00     0.002 A 
ATOM      8  C16 UNK     1      -2.997  36.019 235.240  1.00  0.00     0.051 A 
ATOM      9  C17 UNK     1      -4.828  37.856 234.237  1.00  0.00     0.033 A 
ATOM     10  C18 UNK     1      -5.243  36.843 235.053  1.00  0.00     0.039 A 
ATOM     11  C19 UNK     1      -4.327  35.919 235.548  1.00  0.00     0.069 A 
ENDROOT
BRANCH   1  12
ATOM     12  C1  UNK     1      -0.066  36.318 234.593  1.00  0.00     0.185 C 
BRANCH  12  13
ATOM     13  O1  UNK     1       0.921  36.012 233.615  1.00  0.00    -0.389 OA
ATOM     14  H1  UNK     1       0.563  36.161 232.748  1.00  0.00     0.210 HD
ENDBRANCH  12  13
BRANCH  12  15
ATOM     15  C2  UNK     1       0.590  37.002 235.811  1.00  0.00     0.256 C 
ATOM     16  N1  UNK     1       0.755  36.097 236.968  1.00  0.00     0.096 N 
ATOM     17  C3  UNK     1       1.982  35.296 236.828  1.00  0.00     0.273 C 
ATOM     18  C5  UNK     1       0.897  36.937 238.168  1.00  0.00     0.282 C 
ATOM     19  C4  UNK     1       3.228  36.177 236.912  1.00  0.00     0.035 C 
ATOM     20  C9  UNK     1       2.792  37.629 236.752  1.00  0.00    -0.001 C 
ATOM     21  C6  UNK     1       1.986  38.018 238.000  1.00  0.00     0.040 C 
ATOM     22  C10 UNK     1       1.903  37.733 235.509  1.00  0.00     0.044 C 
BRANCH  21  23
ATOM     23  C7  UNK     1       1.412  39.400 237.927  1.00  0.00    -0.030 C 
ATOM     24  C8  UNK     1       0.214  39.780 238.318  1.00  0.00     0.007 C 
ENDBRANCH  21  23
ENDBRANCH  12  15
ENDBRANCH   1  12
BRANCH  11  25
ATOM     25  O2  UNK     1      -4.811  34.903 236.330  1.00  0.00    -0.356 OA
ATOM     26  C20 UNK     1      -4.240  33.611 236.169  1.00  0.00     0.210 C 
ENDBRANCH  11  25
TORSDOF 5
ENDMDL
MODEL 6
REMARK VINA RESULT:      -6.2      4.093      7.354
REMARK  5 active torsions:
REMARK  status: ('A' for Active; 'I' for Inactive)
REMARK    1  A    between atoms: O1_1  and  C1_2 
REMARK    2  A    between atoms: C1_2  and  C2_3 
REMARK    3  A    between atoms: C1_2  and  C11_13 
REMARK    4  A    between atoms: C6_8  and  C7_9 
REMARK    5  A    between atoms: C19_23  and  O2_24 
ROOT
ATOM      1  C11 UNK     1       0.408  36.100 232.447  1.00  0.00    -0.014 A 
ATOM      2  C12 UNK     1       0.188  34.788 232.114  1.00  0.00     0.027 A 
ATOM      3  C13 UNK     1       0.310  33.801 233.079  1.00  0.00     0.089 A 
ATOM      4  N2  UNK     1       0.624  34.021 234.345  1.00  0.00    -0.365 N 
ATOM      5  H2  UNK     1       0.690  33.257 235.019  1.00  0.00     0.165 HD
ATOM      6  C14 UNK     1       0.857  35.323 234.714  1.00  0.00     0.043 A 
ATOM      7  C15 UNK     1       0.776  36.401 233.797  1.00  0.00     0.002 A 
ATOM      8  C16 UNK     1       1.096  37.704 234.253  1.00  0.00     0.051 A 
ATOM      9  C17 UNK     1       1.225  35.591 236.056  1.00  0.00     0.033 A 
ATOM     10  C18 UNK     1       1.519  36.862 236.460  1.00  0.00     0.039 A 
ATOM     11  C19 UNK     1       1.462  37.918 235.554  1.00  0.00     0.069 A 
ENDROOT
BRANCH   1  12
ATOM     12  C1  UNK     1       0.216  37.198 231.412  1.00  0.00     0.185 C 
BRANCH  12  13
ATOM     13  O1  UNK     1       0.864  36.875 230.187  1.00  0.00    -0.389 OA
ATOM     14  H1  UNK     1       1.344  36.062 230.288  1.00  0.00     0.210 HD
ENDBRANCH  12  13
BRANCH  12  15
ATOM     15  C2  UNK     1      -1.289  37.435 231.169  1.00  0.00     0.256 C 
ATOM     16  N1  UNK     1      -1.783  38.695 231.762  1.00  0.00     0.096 N 
ATOM     17  C3  UNK     1      -1.518  39.830 230.863  1.00  0.00     0.273 C 
ATOM     18  C5  UNK     1      -3.242  38.569 231.913  1.00  0.00     0.282 C 
ATOM     19  C4  UNK     1      -2.339  39.719 229.578  1.00  0.00     0.035 C 
ATOM     20  C9  UNK     1      -2.888  38.300 229.489  1.00  0.00    -0.001 C 
ATOM     21  C6  UNK     1      -3.930  38.127 230.603  1.00  0.00     0.040 C 
ATOM     22  C10 UNK     1      -1.731  37.320 229.706  1.00  0.00     0.044 C 
BRANCH  21  23
ATOM     23  C7  UNK     1      -4.480  36.736 230.689  1.00  0.00    -0.030 C 
ATOM     24  C8  UNK     1      -5.231  36.242 231.650  1.00  0.00     0.007 C 
ENDBRANCH  21  23
ENDBRANCH  12  15
ENDBRANCH   1  12
BRANCH  11  25
ATOM     25  O2  UNK     1       1.805  39.164 236.011  1.00  0.00    -0.356 OA
ATOM     26  C20 UNK     1       1.231  39.605 237.234  1.00  0.00     0.210 C 
ENDBRANCH  11  25
TORSDOF 5
ENDMDL
MODEL 7
REMARK VINA RESULT:      -6.2      7.724     10.758
REMARK  5 active torsions:
REMARK  status: ('A' for Active; 'I' for Inactive)
REMARK    1  A    between atoms: O1_1  and  C1_2 
REMARK    2  A    between atoms: C1_2  and  C2_3 
REMARK    3  A    between atoms: C1_2  and  C11_13 
REMARK    4  A    between atoms: C6_8  and  C7_9 
REMARK    5  A    between atoms: C19_23  and  O2_24 
ROOT
ATOM      1  C11 UNK     1       1.805  38.249 238.027  1.00  0.00    -0.014 A 
ATOM      2  C12 UNK     1       2.861  39.095 238.248  1.00  0.00     0.027 A 
ATOM      3  C13 UNK     1       3.842  38.750 239.163  1.00  0.00     0.089 A 
ATOM      4  N2  UNK     1       3.857  37.630 239.866  1.00  0.00    -0.365 N 
ATOM      5  H2  UNK     1       4.611  37.420 240.520  1.00  0.00     0.165 HD
ATOM      6  C14 UNK     1       2.811  36.760 239.675  1.00  0.00     0.043 A 
ATOM      7  C15 UNK     1       1.749  37.030 238.775  1.00  0.00     0.002 A 
ATOM      8  C16 UNK     1       0.680  36.104 238.691  1.00  0.00     0.051 A 
ATOM      9  C17 UNK     1       2.779  35.563 240.434  1.00  0.00     0.033 A 
ATOM     10  C18 UNK     1       1.734  34.691 240.319  1.00  0.00     0.039 A 
ATOM     11  C19 UNK     1       0.680  34.967 239.452  1.00  0.00     0.069 A 
ENDROOT
BRANCH   1  12
ATOM     12  C1  UNK     1       0.755  38.587 236.979  1.00  0.00     0.185 C 
BRANCH  12  13
ATOM     13  O1  UNK     1       1.111  39.754 236.247  1.00  0.00    -0.389 OA
ATOM     14  H1  UNK     1       0.403  39.985 235.657  1.00  0.00     0.210 HD
ENDBRANCH  12  13
BRANCH  12  15
ATOM     15  C2  UNK     1       0.569  37.395 236.018  1.00  0.00     0.256 C 
ATOM     16  N1  UNK     1      -0.819  37.251 235.531  1.00  0.00     0.096 N 
ATOM     17  C3  UNK     1      -1.060  38.141 234.384  1.00  0.00     0.273 C 
ATOM     18  C5  UNK     1      -0.983  35.863 235.069  1.00  0.00     0.282 C 
ATOM     19  C4  UNK     1      -0.234  37.713 233.171  1.00  0.00     0.035 C 
ATOM     20  C9  UNK     1       0.832  36.733 233.647  1.00  0.00    -0.001 C 
ATOM     21  C6  UNK     1       0.123  35.441 234.079  1.00  0.00     0.040 C 
ATOM     22  C10 UNK     1       1.556  37.352 234.846  1.00  0.00     0.044 C 
BRANCH  21  23
ATOM     23  C7  UNK     1       1.054  34.422 234.663  1.00  0.00    -0.030 C 
ATOM     24  C8  UNK     1       0.882  33.741 235.776  1.00  0.00     0.007 C 
ENDBRANCH  21  23
ENDBRANCH  12  15
ENDBRANCH   1  12
BRANCH  11  25
ATOM     25  O2  UNK     1      -0.357  34.072 239.411  1.00  0.00    -0.356 OA
ATOM     26  C20 UNK     1      -0.722  33.421 240.621  1.00  0.00     0.210 C 
ENDBRANCH  11  25
TORSDOF 5
ENDMDL
MODEL 8
REMARK VINA RESULT:      -6.1      1.940      6.726
REMARK  5 active torsions:
REMARK  status: ('A' for Active; 'I' for Inactive)
REMARK    1  A    between atoms: O1_1  and  C1_2 
REMARK    2  A    between atoms: C1_2  and  C2_3 
REMARK    3  A    between atoms: C1_2  and  C11_13 
REMARK    4  A    between atoms: C6_8  and  C7_9 
REMARK    5  A    between atoms: C19_23  and  O2_24 
ROOT
ATOM      1  C11 UNK     1      -1.586  40.771 229.361  1.00  0.00    -0.014 A 
ATOM      2  C12 UNK     1      -0.516  40.049 229.826  1.00  0.00     0.027 A 
ATOM      3  C13 UNK     1      -0.597  38.668 229.900  1.00  0.00     0.089 A 
ATOM      4  N2  UNK     1      -1.651  37.954 229.542  1.00  0.00    -0.365 N 
ATOM      5  H2  UNK     1      -1.653  36.936 229.607  1.00  0.00     0.165 HD
ATOM      6  C14 UNK     1      -2.743  38.645 229.077  1.00  0.00     0.043 A 
ATOM      7  C15 UNK     1      -2.767  40.059 228.981  1.00  0.00     0.002 A 
ATOM      8  C16 UNK     1      -3.961  40.689 228.551  1.00  0.00     0.051 A 
ATOM      9  C17 UNK     1      -3.902  37.913 228.713  1.00  0.00     0.033 A 
ATOM     10  C18 UNK     1      -5.032  38.557 228.296  1.00  0.00     0.039 A 
ATOM     11  C19 UNK     1      -5.063  39.946 228.223  1.00  0.00     0.069 A 
ENDROOT
BRANCH   1  12
ATOM     12  C1  UNK     1      -1.487  42.282 229.216  1.00  0.00     0.185 C 
BRANCH  12  13
ATOM     13  O1  UNK     1      -2.042  42.949 230.344  1.00  0.00    -0.389 OA
ATOM     14  H1  UNK     1      -1.342  43.236 230.918  1.00  0.00     0.210 HD
ENDBRANCH  12  13
BRANCH  12  15
ATOM     15  C2  UNK     1      -0.014  42.698 229.028  1.00  0.00     0.256 C 
ATOM     16  N1  UNK     1       0.400  42.749 227.610  1.00  0.00     0.096 N 
ATOM     17  C3  UNK     1       0.020  44.035 227.005  1.00  0.00     0.273 C 
ATOM     18  C5  UNK     1       1.869  42.649 227.575  1.00  0.00     0.282 C 
ATOM     19  C4  UNK     1       0.806  45.190 227.625  1.00  0.00     0.035 C 
ATOM     20  C9  UNK     1       1.460  44.683 228.906  1.00  0.00    -0.001 C 
ATOM     21  C6  UNK     1       2.547  43.673 228.511  1.00  0.00     0.040 C 
ATOM     22  C10 UNK     1       0.390  43.987 229.752  1.00  0.00     0.044 C 
BRANCH  21  23
ATOM     23  C7  UNK     1       3.206  43.021 229.688  1.00  0.00    -0.030 C 
ATOM     24  C8  UNK     1       4.165  43.525 230.436  1.00  0.00     0.007 C 
ENDBRANCH  21  23
ENDBRANCH  12  15
ENDBRANCH   1  12
BRANCH  11  25
ATOM     25  O2  UNK     1      -6.238  40.535 227.834  1.00  0.00    -0.356 OA
ATOM     26  C20 UNK     1      -7.130  39.771 227.034  1.00  0.00     0.210 C 
ENDBRANCH  11  25
TORSDOF 5
ENDMDL
MODEL 9
REMARK VINA RESULT:      -6.1      6.679      9.550
REMARK  5 active torsions:
REMARK  status: ('A' for Active; 'I' for Inactive)
REMARK    1  A    between atoms: O1_1  and  C1_2 
REMARK    2  A    between atoms: C1_2  and  C2_3 
REMARK    3  A    between atoms: C1_2  and  C11_13 
REMARK    4  A    between atoms: C6_8  and  C7_9 
REMARK    5  A    between atoms: C19_23  and  O2_24 
ROOT
ATOM      1  C11 UNK     1       1.301  38.278 236.407  1.00  0.00    -0.014 A 
ATOM      2  C12 UNK     1       0.788  39.332 237.120  1.00  0.00     0.027 A 
ATOM      3  C13 UNK     1       0.902  39.351 238.500  1.00  0.00     0.089 A 
ATOM      4  N2  UNK     1       1.492  38.412 239.221  1.00  0.00    -0.365 N 
ATOM      5  H2  UNK     1       1.558  38.481 240.236  1.00  0.00     0.165 HD
ATOM      6  C14 UNK     1       2.013  37.339 238.540  1.00  0.00     0.043 A 
ATOM      7  C15 UNK     1       1.930  37.216 237.130  1.00  0.00     0.002 A 
ATOM      8  C16 UNK     1       2.439  36.043 236.520  1.00  0.00     0.051 A 
ATOM      9  C17 UNK     1       2.626  36.298 239.283  1.00  0.00     0.033 A 
ATOM     10  C18 UNK     1       3.112  35.186 238.658  1.00  0.00     0.039 A 
ATOM     11  C19 UNK     1       3.011  35.055 237.276  1.00  0.00     0.069 A 
ENDROOT
BRANCH   1  12
ATOM     12  C1  UNK     1       1.237  38.276 234.887  1.00  0.00     0.185 C 
BRANCH  12  13
ATOM     13  O1  UNK     1       2.526  38.458 234.313  1.00  0.00    -0.389 OA
ATOM     14  H1  UNK     1       3.190  38.338 234.982  1.00  0.00     0.210 HD
ENDBRANCH  12  13
BRANCH  12  15
ATOM     15  C2  UNK     1       0.618  36.954 234.388  1.00  0.00     0.256 C 
ATOM     16  N1  UNK     1      -0.808  36.806 234.749  1.00  0.00     0.096 N 
ATOM     17  C3  UNK     1      -1.663  37.505 233.777  1.00  0.00     0.273 C 
ATOM     18  C5  UNK     1      -1.131  35.371 234.686  1.00  0.00     0.282 C 
ATOM     19  C4  UNK     1      -1.594  36.841 232.403  1.00  0.00     0.035 C 
ATOM     20  C9  UNK     1      -0.396  35.897 232.393  1.00  0.00    -0.001 C 
ATOM     21  C6  UNK     1      -0.707  34.733 233.346  1.00  0.00     0.040 C 
ATOM     22  C10 UNK     1       0.828  36.666 232.898  1.00  0.00     0.044 C 
BRANCH  21  23
ATOM     23  C7  UNK     1       0.435  33.777 233.504  1.00  0.00    -0.030 C 
ATOM     24  C8  UNK     1       0.828  33.193 234.617  1.00  0.00     0.007 C 
ENDBRANCH  21  23
ENDBRANCH  12  15
ENDBRANCH   1  12
BRANCH  11  25
ATOM     25  O2  UNK     1       3.482  33.898 236.712  1.00  0.00    -0.356 OA
ATOM     26  C20 UNK     1       3.289  32.685 237.427  1.00  0.00     0.210 C 
ENDBRANCH  11  25
TORSDOF 5
ENDMDL
