MODEL 1
REMARK VINA RESULT:      -6.8      0.000      0.000
REMARK  7 active torsions:
REMARK  status: ('A' for Active; 'I' for Inactive)
REMARK    1  A    between atoms: C1_2  and  C2_5 
REMARK    2  A    between atoms: C5_8  and  O1_11 
REMARK    3  A    between atoms: O1_11  and  C8_12 
REMARK    4  A    between atoms: C8_12  and  C9_13 
REMARK    5  A    between atoms: C8_12  and  C12_17 
REMARK    6  A    between atoms: C9_13  and  C10_14 
REMARK    7  A    between atoms: C10_14  and  N1_15 
ROOT
ATOM      1  C8  UNK     1      -2.478  42.074 228.308  1.00  0.00     0.163 C 
ENDROOT
BRANCH   1   2
ATOM      2  O1  UNK     1      -1.224  42.107 227.620  1.00  0.00    -0.341 OA
BRANCH   2   3
ATOM      3  C5  UNK     1      -0.045  42.499 228.205  1.00  0.00     0.069 A 
ATOM      4  C4  UNK     1      -0.111  43.376 229.286  1.00  0.00     0.037 A 
ATOM      5  C3  UNK     1       1.059  43.804 229.910  1.00  0.00     0.019 A 
ATOM      6  C2  UNK     1       2.299  43.354 229.453  1.00  0.00     0.048 A 
ATOM      7  C7  UNK     1       2.369  42.472 228.371  1.00  0.00     0.019 A 
ATOM      8  C6  UNK     1       1.198  42.044 227.747  1.00  0.00     0.037 A 
BRANCH   6   9
ATOM      9  C1  UNK     1       3.560  43.813 230.127  1.00  0.00     0.417 C 
ATOM     10  F1  UNK     1       3.377  43.782 231.432  1.00  0.00    -0.166 F 
ATOM     11  F2  UNK     1       4.559  43.012 229.798  1.00  0.00    -0.166 F 
ATOM     12  F3  UNK     1       3.856  45.047 229.764  1.00  0.00    -0.166 F 
ENDBRANCH   6   9
ENDBRANCH   2   3
ENDBRANCH   1   2
BRANCH   1  13
ATOM     13  C9  UNK     1      -3.601  42.338 227.302  1.00  0.00     0.067 C 
BRANCH  13  14
ATOM     14  C10 UNK     1      -3.225  43.502 226.382  1.00  0.00     0.272 C 
BRANCH  14  15
ATOM     15  N1  UNK     1      -2.496  43.100 225.191  1.00  0.00     0.079 N 
ATOM     16  C11 UNK     1      -3.062  42.122 224.278  1.00  0.00     0.306 C 
ATOM     17  H17 UNK     1      -2.365  43.933 224.654  1.00  0.00     0.315 HD
ENDBRANCH  14  15
ENDBRANCH  13  14
ENDBRANCH   1  13
BRANCH   1  18
ATOM     18  C12 UNK     1      -2.653  40.779 229.028  1.00  0.00    -0.029 A 
ATOM     19  C13 UNK     1      -3.689  39.921 228.650  1.00  0.00     0.010 A 
ATOM     20  C14 UNK     1      -3.875  38.705 229.310  1.00  0.00     0.001 A 
ATOM     21  C15 UNK     1      -3.030  38.343 230.360  1.00  0.00     0.000 A 
ATOM     22  C16 UNK     1      -1.997  39.198 230.744  1.00  0.00     0.001 A 
ATOM     23  C17 UNK     1      -1.810  40.413 230.085  1.00  0.00     0.010 A 
ENDBRANCH   1  18
TORSDOF 7
ENDMDL
MODEL 2
REMARK VINA RESULT:      -6.7      7.844      9.771
REMARK  7 active torsions:
REMARK  status: ('A' for Active; 'I' for Inactive)
REMARK    1  A    between atoms: C1_2  and  C2_5 
REMARK    2  A    between atoms: C5_8  and  O1_11 
REMARK    3  A    between atoms: O1_11  and  C8_12 
REMARK    4  A    between atoms: C8_12  and  C9_13 
REMARK    5  A    between atoms: C8_12  and  C12_17 
REMARK    6  A    between atoms: C9_13  and  C10_14 
REMARK    7  A    between atoms: C10_14  and  N1_15 
ROOT
ATOM      1  C8  UNK     1       0.298  37.378 234.542  1.00  0.00     0.163 C 
ENDROOT
BRANCH   1   2
ATOM      2  O1  UNK     1       1.290  38.330 234.934  1.00  0.00    -0.341 OA
BRANCH   2   3
ATOM      3  C5  UNK     1       1.905  38.328 236.162  1.00  0.00     0.069 A 
ATOM      4  C4  UNK     1       2.841  37.329 236.422  1.00  0.00     0.037 A 
ATOM      5  C3  UNK     1       3.488  37.284 237.655  1.00  0.00     0.019 A 
ATOM      6  C2  UNK     1       3.200  38.239 238.631  1.00  0.00     0.048 A 
ATOM      7  C7  UNK     1       2.265  39.245 238.372  1.00  0.00     0.019 A 
ATOM      8  C6  UNK     1       1.617  39.290 237.139  1.00  0.00     0.037 A 
BRANCH   6   9
ATOM      9  C1  UNK     1       3.900  38.192 239.959  1.00  0.00     0.417 C 
ATOM     10  F1  UNK     1       3.775  36.980 240.461  1.00  0.00    -0.166 F 
ATOM     11  F2  UNK     1       5.180  38.478 239.799  1.00  0.00    -0.166 F 
ATOM     12  F3  UNK     1       3.363  39.060 240.796  1.00  0.00    -0.166 F 
ENDBRANCH   6   9
ENDBRANCH   2   3
ENDBRANCH   1   2
BRANCH   1  13
ATOM     13  C9  UNK     1      -1.011  37.701 235.266  1.00  0.00     0.067 C 
BRANCH  13  14
ATOM     14  C10 UNK     1      -1.370  36.577 236.240  1.00  0.00     0.272 C 
BRANCH  14  15
ATOM     15  N1  UNK     1      -1.005  36.853 237.618  1.00  0.00     0.079 N 
ATOM     16  C11 UNK     1      -0.086  35.977 238.325  1.00  0.00     0.306 C 
ATOM     17  H17 UNK     1      -0.575  37.756 237.614  1.00  0.00     0.315 HD
ENDBRANCH  14  15
ENDBRANCH  13  14
ENDBRANCH   1  13
BRANCH   1  18
ATOM     18  C12 UNK     1       0.138  37.360 233.058  1.00  0.00    -0.029 A 
ATOM     19  C13 UNK     1       1.073  36.673 232.278  1.00  0.00     0.010 A 
ATOM     20  C14 UNK     1       0.948  36.645 230.888  1.00  0.00     0.001 A 
ATOM     21  C15 UNK     1      -0.110  37.310 230.268  1.00  0.00     0.000 A 
ATOM     22  C16 UNK     1      -1.043  38.000 231.041  1.00  0.00     0.001 A 
ATOM     23  C17 UNK     1      -0.920  38.030 232.431  1.00  0.00     0.010 A 
ENDBRANCH   1  18
TORSDOF 7
ENDMDL
MODEL 3
REMARK VINA RESULT:      -6.6      8.305     10.269
REMARK  7 active torsions:
REMARK  status: ('A' for Active; 'I' for Inactive)
REMARK    1  A    between atoms: C1_2  and  C2_5 
REMARK    2  A    between atoms: C5_8  and  O1_11 
REMARK    3  A    between atoms: O1_11  and  C8_12 
REMARK    4  A    between atoms: C8_12  and  C9_13 
REMARK    5  A    between atoms: C8_12  and  C12_17 
REMARK    6  A    between atoms: C9_13  and  C10_14 
REMARK    7  A    between atoms: C10_14  and  N1_15 
ROOT
ATOM      1  C8  UNK     1       0.595  36.588 234.838  1.00  0.00     0.163 C 
ENDROOT
BRANCH   1   2
ATOM      2  O1  UNK     1       1.714  37.447 235.076  1.00  0.00    -0.341 OA
BRANCH   2   3
ATOM      3  C5  UNK     1       2.282  37.633 236.312  1.00  0.00     0.069 A 
ATOM      4  C4  UNK     1       2.999  36.576 236.868  1.00  0.00     0.037 A 
ATOM      5  C3  UNK     1       3.591  36.717 238.121  1.00  0.00     0.019 A 
ATOM      6  C2  UNK     1       3.467  37.917 238.822  1.00  0.00     0.048 A 
ATOM      7  C7  UNK     1       2.752  38.982 238.266  1.00  0.00     0.019 A 
ATOM      8  C6  UNK     1       2.160  38.841 237.012  1.00  0.00     0.037 A 
BRANCH   6   9
ATOM      9  C1  UNK     1       4.108  38.070 240.171  1.00  0.00     0.417 C 
ATOM     10  F1  UNK     1       5.402  38.255 240.006  1.00  0.00    -0.166 F 
ATOM     11  F2  UNK     1       3.586  39.110 240.798  1.00  0.00    -0.166 F 
ATOM     12  F3  UNK     1       3.919  36.985 240.899  1.00  0.00    -0.166 F 
ENDBRANCH   6   9
ENDBRANCH   2   3
ENDBRANCH   1   2
BRANCH   1  13
ATOM     13  C9  UNK     1      -0.682  37.304 235.284  1.00  0.00     0.067 C 
BRANCH  13  14
ATOM     14  C10 UNK     1      -1.075  36.858 236.694  1.00  0.00     0.272 C 
BRANCH  14  15
ATOM     15  N1  UNK     1      -0.564  35.549 237.062  1.00  0.00     0.079 N 
ATOM     16  C11 UNK     1      -0.151  35.278 238.429  1.00  0.00     0.306 C 
ATOM     17  H17 UNK     1      -1.299  34.901 236.863  1.00  0.00     0.315 HD
ENDBRANCH  14  15
ENDBRANCH  13  14
ENDBRANCH   1  13
BRANCH   1  18
ATOM     18  C12 UNK     1       0.543  36.170 233.407  1.00  0.00    -0.029 A 
ATOM     19  C13 UNK     1       1.047  37.027 232.426  1.00  0.00     0.010 A 
ATOM     20  C14 UNK     1       1.007  36.661 231.079  1.00  0.00     0.001 A 
ATOM     21  C15 UNK     1       0.454  35.436 230.704  1.00  0.00     0.000 A 
ATOM     22  C16 UNK     1      -0.055  34.578 231.679  1.00  0.00     0.001 A 
ATOM     23  C17 UNK     1      -0.015  34.943 233.026  1.00  0.00     0.010 A 
ENDBRANCH   1  18
TORSDOF 7
ENDMDL
MODEL 4
REMARK VINA RESULT:      -6.5      7.395      9.250
REMARK  7 active torsions:
REMARK  status: ('A' for Active; 'I' for Inactive)
REMARK    1  A    between atoms: C1_2  and  C2_5 
REMARK    2  A    between atoms: C5_8  and  O1_11 
REMARK    3  A    between atoms: O1_11  and  C8_12 
REMARK    4  A    between atoms: C8_12  and  C9_13 
REMARK    5  A    between atoms: C8_12  and  C12_17 
REMARK    6  A    between atoms: C9_13  and  C10_14 
REMARK    7  A    between atoms: C10_14  and  N1_15 
ROOT
ATOM      1  C8  UNK     1       0.705  36.041 234.431  1.00  0.00     0.163 C 
ENDROOT
BRANCH   1   2
ATOM      2  O1  UNK     1       1.339  37.299 234.679  1.00  0.00    -0.341 OA
BRANCH   2   3
ATOM      3  C5  UNK     1       1.882  37.652 235.890  1.00  0.00     0.069 A 
ATOM      4  C4  UNK     1       2.827  36.800 236.457  1.00  0.00     0.037 A 
ATOM      5  C3  UNK     1       3.403  37.114 237.686  1.00  0.00     0.019 A 
ATOM      6  C2  UNK     1       3.035  38.285 238.351  1.00  0.00     0.048 A 
ATOM      7  C7  UNK     1       2.090  39.145 237.784  1.00  0.00     0.019 A 
ATOM      8  C6  UNK     1       1.514  38.829 236.555  1.00  0.00     0.037 A 
BRANCH   6   9
ATOM      9  C1  UNK     1       3.658  38.626 239.674  1.00  0.00     0.417 C 
ATOM     10  F1  UNK     1       4.376  37.598 240.081  1.00  0.00    -0.166 F 
ATOM     11  F2  UNK     1       4.434  39.687 239.541  1.00  0.00    -0.166 F 
ATOM     12  F3  UNK     1       2.725  38.881 240.573  1.00  0.00    -0.166 F 
ENDBRANCH   6   9
ENDBRANCH   2   3
ENDBRANCH   1   2
BRANCH   1  13
ATOM     13  C9  UNK     1      -0.649  36.021 235.146  1.00  0.00     0.067 C 
BRANCH  13  14
ATOM     14  C10 UNK     1      -1.687  36.801 234.335  1.00  0.00     0.272 C 
BRANCH  14  15
ATOM     15  N1  UNK     1      -1.444  38.232 234.287  1.00  0.00     0.079 N 
ATOM     16  C11 UNK     1      -1.823  39.003 233.116  1.00  0.00     0.306 C 
ATOM     17  H17 UNK     1      -1.957  38.624 235.052  1.00  0.00     0.315 HD
ENDBRANCH  14  15
ENDBRANCH  13  14
ENDBRANCH   1  13
BRANCH   1  18
ATOM     18  C12 UNK     1       0.578  35.792 232.965  1.00  0.00    -0.029 A 
ATOM     19  C13 UNK     1       1.009  36.771 232.066  1.00  0.00     0.010 A 
ATOM     20  C14 UNK     1       0.897  36.564 230.690  1.00  0.00     0.001 A 
ATOM     21  C15 UNK     1       0.346  35.378 230.204  1.00  0.00     0.000 A 
ATOM     22  C16 UNK     1      -0.089  34.399 231.097  1.00  0.00     0.001 A 
ATOM     23  C17 UNK     1       0.022  34.605 232.474  1.00  0.00     0.010 A 
ENDBRANCH   1  18
TORSDOF 7
ENDMDL
MODEL 5
REMARK VINA RESULT:      -6.3      2.172      3.982
REMARK  7 active torsions:
REMARK  status: ('A' for Active; 'I' for Inactive)
REMARK    1  A    between atoms: C1_2  and  C2_5 
REMARK    2  A    between atoms: C5_8  and  O1_11 
REMARK    3  A    between atoms: O1_11  and  C8_12 
REMARK    4  A    between atoms: C8_12  and  C9_13 
REMARK    5  A    between atoms: C8_12  and  C12_17 
REMARK    6  A    between atoms: C9_13  and  C10_14 
REMARK    7  A    between atoms: C10_14  and  N1_15 
ROOT
ATOM      1  C8  UNK     1      -3.059  40.596 229.013  1.00  0.00     0.163 C 
ENDROOT
BRANCH   1   2
ATOM      2  O1  UNK     1      -2.363  41.571 229.794  1.00  0.00    -0.341 OA
BRANCH   2   3
ATOM      3  C5  UNK     1      -1.114  42.048 229.479  1.00  0.00     0.069 A 
ATOM      4  C4  UNK     1      -0.796  43.351 229.858  1.00  0.00     0.037 A 
ATOM      5  C3  UNK     1       0.458  43.879 229.558  1.00  0.00     0.019 A 
ATOM      6  C2  UNK     1       1.398  43.103 228.878  1.00  0.00     0.048 A 
ATOM      7  C7  UNK     1       1.085  41.795 228.499  1.00  0.00     0.019 A 
ATOM      8  C6  UNK     1      -0.170  41.267 228.800  1.00  0.00     0.037 A 
BRANCH   6   9
ATOM      9  C1  UNK     1       2.751  43.671 228.557  1.00  0.00     0.417 C 
ATOM     10  F1  UNK     1       3.672  42.802 228.922  1.00  0.00    -0.166 F 
ATOM     11  F2  UNK     1       2.843  43.899 227.259  1.00  0.00    -0.166 F 
ATOM     12  F3  UNK     1       2.944  44.802 229.210  1.00  0.00    -0.166 F 
ENDBRANCH   6   9
ENDBRANCH   2   3
ENDBRANCH   1   2
BRANCH   1  13
ATOM     13  C9  UNK     1      -3.887  39.713 229.950  1.00  0.00     0.067 C 
BRANCH  13  14
ATOM     14  C10 UNK     1      -3.075  38.489 230.380  1.00  0.00     0.272 C 
BRANCH  14  15
ATOM     15  N1  UNK     1      -1.832  38.815 231.058  1.00  0.00     0.079 N 
ATOM     16  C11 UNK     1      -1.829  39.129 232.477  1.00  0.00     0.306 C 
ATOM     17  H17 UNK     1      -1.243  38.013 230.952  1.00  0.00     0.315 HD
ENDBRANCH  14  15
ENDBRANCH  13  14
ENDBRANCH   1  13
BRANCH   1  18
ATOM     18  C12 UNK     1      -3.894  41.254 227.966  1.00  0.00    -0.029 A 
ATOM     19  C13 UNK     1      -5.206  40.817 227.763  1.00  0.00     0.010 A 
ATOM     20  C14 UNK     1      -6.005  41.414 226.787  1.00  0.00     0.001 A 
ATOM     21  C15 UNK     1      -5.495  42.447 226.001  1.00  0.00     0.000 A 
ATOM     22  C16 UNK     1      -4.185  42.884 226.196  1.00  0.00     0.001 A 
ATOM     23  C17 UNK     1      -3.384  42.288 227.172  1.00  0.00     0.010 A 
ENDBRANCH   1  18
TORSDOF 7
ENDMDL
MODEL 6
REMARK VINA RESULT:      -6.3      8.871     11.133
REMARK  7 active torsions:
REMARK  status: ('A' for Active; 'I' for Inactive)
REMARK    1  A    between atoms: C1_2  and  C2_5 
REMARK    2  A    between atoms: C5_8  and  O1_11 
REMARK    3  A    between atoms: O1_11  and  C8_12 
REMARK    4  A    between atoms: C8_12  and  C9_13 
REMARK    5  A    between atoms: C8_12  and  C12_17 
REMARK    6  A    between atoms: C9_13  and  C10_14 
REMARK    7  A    between atoms: C10_14  and  N1_15 
ROOT
ATOM      1  C8  UNK     1       2.949  35.821 237.195  1.00  0.00     0.163 C 
ENDROOT
BRANCH   1   2
ATOM      2  O1  UNK     1       1.621  36.054 236.718  1.00  0.00    -0.341 OA
BRANCH   2   3
ATOM      3  C5  UNK     1       1.300  36.178 235.388  1.00  0.00     0.069 A 
ATOM      4  C4  UNK     1       1.611  37.376 234.749  1.00  0.00     0.037 A 
ATOM      5  C3  UNK     1       1.302  37.550 233.402  1.00  0.00     0.019 A 
ATOM      6  C2  UNK     1       0.681  36.522 232.689  1.00  0.00     0.048 A 
ATOM      7  C7  UNK     1       0.371  35.317 233.325  1.00  0.00     0.019 A 
ATOM      8  C6  UNK     1       0.680  35.144 234.674  1.00  0.00     0.037 A 
BRANCH   6   9
ATOM      9  C1  UNK     1       0.351  36.707 231.236  1.00  0.00     0.417 C 
ATOM     10  F1  UNK     1      -0.556  35.815 230.891  1.00  0.00    -0.166 F 
ATOM     11  F2  UNK     1      -0.123  37.925 231.037  1.00  0.00    -0.166 F 
ATOM     12  F3  UNK     1       1.428  36.535 230.492  1.00  0.00    -0.166 F 
ENDBRANCH   6   9
ENDBRANCH   2   3
ENDBRANCH   1   2
BRANCH   1  13
ATOM     13  C9  UNK     1       3.154  36.610 238.490  1.00  0.00     0.067 C 
BRANCH  13  14
ATOM     14  C10 UNK     1       2.718  38.065 238.299  1.00  0.00     0.272 C 
BRANCH  14  15
ATOM     15  N1  UNK     1       1.373  38.345 238.770  1.00  0.00     0.079 N 
ATOM     16  C11 UNK     1       0.596  39.421 238.180  1.00  0.00     0.306 C 
ATOM     17  H17 UNK     1       0.848  37.508 238.615  1.00  0.00     0.315 HD
ENDBRANCH  14  15
ENDBRANCH  13  14
ENDBRANCH   1  13
BRANCH   1  18
ATOM     18  C12 UNK     1       3.199  34.361 237.372  1.00  0.00    -0.029 A 
ATOM     19  C13 UNK     1       3.295  33.836 238.664  1.00  0.00     0.010 A 
ATOM     20  C14 UNK     1       3.533  32.474 238.856  1.00  0.00     0.001 A 
ATOM     21  C15 UNK     1       3.684  31.628 237.757  1.00  0.00     0.000 A 
ATOM     22  C16 UNK     1       3.594  32.148 236.465  1.00  0.00     0.001 A 
ATOM     23  C17 UNK     1       3.356  33.510 236.272  1.00  0.00     0.010 A 
ENDBRANCH   1  18
TORSDOF 7
ENDMDL
MODEL 7
REMARK VINA RESULT:      -6.2      8.360     10.730
REMARK  7 active torsions:
REMARK  status: ('A' for Active; 'I' for Inactive)
REMARK    1  A    between atoms: C1_2  and  C2_5 
REMARK    2  A    between atoms: C5_8  and  O1_11 
REMARK    3  A    between atoms: O1_11  and  C8_12 
REMARK    4  A    between atoms: C8_12  and  C9_13 
REMARK    5  A    between atoms: C8_12  and  C12_17 
REMARK    6  A    between atoms: C9_13  and  C10_14 
REMARK    7  A    between atoms: C10_14  and  N1_15 
ROOT
ATOM      1  C8  UNK     1       0.973  36.571 237.742  1.00  0.00     0.163 C 
ENDROOT
BRANCH   1   2
ATOM      2  O1  UNK     1       1.504  35.783 236.673  1.00  0.00    -0.341 OA
BRANCH   2   3
ATOM      3  C5  UNK     1       1.239  36.022 235.347  1.00  0.00     0.069 A 
ATOM      4  C4  UNK     1       0.748  34.968 234.578  1.00  0.00     0.037 A 
ATOM      5  C3  UNK     1       0.468  35.162 233.227  1.00  0.00     0.019 A 
ATOM      6  C2  UNK     1       0.677  36.412 232.642  1.00  0.00     0.048 A 
ATOM      7  C7  UNK     1       1.165  37.472 233.411  1.00  0.00     0.019 A 
ATOM      8  C6  UNK     1       1.446  37.278 234.762  1.00  0.00     0.037 A 
BRANCH   6   9
ATOM      9  C1  UNK     1       0.371  36.621 231.187  1.00  0.00     0.417 C 
ATOM     10  F1  UNK     1      -0.099  37.842 231.025  1.00  0.00    -0.166 F 
ATOM     11  F2  UNK     1       1.473  36.470 230.473  1.00  0.00    -0.166 F 
ATOM     12  F3  UNK     1      -0.535  35.754 230.775  1.00  0.00    -0.166 F 
ENDBRANCH   6   9
ENDBRANCH   2   3
ENDBRANCH   1   2
BRANCH   1  13
ATOM     13  C9  UNK     1       0.165  35.662 238.671  1.00  0.00     0.067 C 
BRANCH  13  14
ATOM     14  C10 UNK     1      -1.298  35.612 238.223  1.00  0.00     0.272 C 
BRANCH  14  15
ATOM     15  N1  UNK     1      -1.645  36.616 237.232  1.00  0.00     0.079 N 
ATOM     16  C11 UNK     1      -2.440  36.258 236.070  1.00  0.00     0.306 C 
ATOM     17  H17 UNK     1      -2.170  37.314 237.720  1.00  0.00     0.315 HD
ENDBRANCH  14  15
ENDBRANCH  13  14
ENDBRANCH   1  13
BRANCH   1  18
ATOM     18  C12 UNK     1       2.064  37.293 238.460  1.00  0.00    -0.029 A 
ATOM     19  C13 UNK     1       2.525  38.511 237.954  1.00  0.00     0.010 A 
ATOM     20  C14 UNK     1       3.547  39.204 238.605  1.00  0.00     0.001 A 
ATOM     21  C15 UNK     1       4.121  38.679 239.764  1.00  0.00     0.000 A 
ATOM     22  C16 UNK     1       3.667  37.461 240.271  1.00  0.00     0.001 A 
ATOM     23  C17 UNK     1       2.645  36.767 239.621  1.00  0.00     0.010 A 
ENDBRANCH   1  18
TORSDOF 7
ENDMDL
MODEL 8
REMARK VINA RESULT:      -6.1      7.309      9.222
REMARK  7 active torsions:
REMARK  status: ('A' for Active; 'I' for Inactive)
REMARK    1  A    between atoms: C1_2  and  C2_5 
REMARK    2  A    between atoms: C5_8  and  O1_11 
REMARK    3  A    between atoms: O1_11  and  C8_12 
REMARK    4  A    between atoms: C8_12  and  C9_13 
REMARK    5  A    between atoms: C8_12  and  C12_17 
REMARK    6  A    between atoms: C9_13  and  C10_14 
REMARK    7  A    between atoms: C10_14  and  N1_15 
ROOT
ATOM      1  C8  UNK     1      -0.118  37.302 234.278  1.00  0.00     0.163 C 
ENDROOT
BRANCH   1   2
ATOM      2  O1  UNK     1       0.550  38.464 234.777  1.00  0.00    -0.341 OA
BRANCH   2   3
ATOM      3  C5  UNK     1       1.240  38.495 235.964  1.00  0.00     0.069 A 
ATOM      4  C4  UNK     1       2.431  37.776 236.046  1.00  0.00     0.037 A 
ATOM      5  C3  UNK     1       3.166  37.774 237.230  1.00  0.00     0.019 A 
ATOM      6  C2  UNK     1       2.709  38.493 238.336  1.00  0.00     0.048 A 
ATOM      7  C7  UNK     1       1.517  39.218 238.257  1.00  0.00     0.019 A 
ATOM      8  C6  UNK     1       0.783  39.219 237.072  1.00  0.00     0.037 A 
BRANCH   6   9
ATOM      9  C1  UNK     1       3.502  38.494 239.611  1.00  0.00     0.417 C 
ATOM     10  F1  UNK     1       2.718  38.884 240.596  1.00  0.00    -0.166 F 
ATOM     11  F2  UNK     1       3.953  37.277 239.857  1.00  0.00    -0.166 F 
ATOM     12  F3  UNK     1       4.523  39.325 239.521  1.00  0.00    -0.166 F 
ENDBRANCH   6   9
ENDBRANCH   2   3
ENDBRANCH   1   2
BRANCH   1  13
ATOM     13  C9  UNK     1      -1.540  37.268 234.843  1.00  0.00     0.067 C 
BRANCH  13  14
ATOM     14  C10 UNK     1      -1.663  36.172 235.904  1.00  0.00     0.272 C 
BRANCH  14  15
ATOM     15  N1  UNK     1      -2.643  35.148 235.582  1.00  0.00     0.079 N 
ATOM     16  C11 UNK     1      -2.935  34.818 234.198  1.00  0.00     0.306 C 
ATOM     17  H17 UNK     1      -2.306  34.304 236.001  1.00  0.00     0.315 HD
ENDBRANCH  14  15
ENDBRANCH  13  14
ENDBRANCH   1  13
BRANCH   1  18
ATOM     18  C12 UNK     1      -0.098  37.279 232.786  1.00  0.00    -0.029 A 
ATOM     19  C13 UNK     1       0.882  36.532 232.127  1.00  0.00     0.010 A 
ATOM     20  C14 UNK     1       0.925  36.498 230.732  1.00  0.00     0.001 A 
ATOM     21  C15 UNK     1      -0.009  37.219 229.986  1.00  0.00     0.000 A 
ATOM     22  C16 UNK     1      -0.987  37.970 230.639  1.00  0.00     0.001 A 
ATOM     23  C17 UNK     1      -1.030  38.004 232.034  1.00  0.00     0.010 A 
ENDBRANCH   1  18
TORSDOF 7
ENDMDL
MODEL 9
REMARK VINA RESULT:      -6.0      8.322     10.613
REMARK  7 active torsions:
REMARK  status: ('A' for Active; 'I' for Inactive)
REMARK    1  A    between atoms: C1_2  and  C2_5 
REMARK    2  A    between atoms: C5_8  and  O1_11 
REMARK    3  A    between atoms: O1_11  and  C8_12 
REMARK    4  A    between atoms: C8_12  and  C9_13 
REMARK    5  A    between atoms: C8_12  and  C12_17 
REMARK    6  A    between atoms: C9_13  and  C10_14 
REMARK    7  A    between atoms: C10_14  and  N1_15 
ROOT
ATOM      1  C8  UNK     1       2.373  36.138 236.336  1.00  0.00     0.163 C 
ENDROOT
BRANCH   1   2
ATOM      2  O1  UNK     1       1.090  36.014 235.716  1.00  0.00    -0.341 OA
BRANCH   2   3
ATOM      3  C5  UNK     1       0.900  36.002 234.356  1.00  0.00     0.069 A 
ATOM      4  C4  UNK     1       0.389  34.842 233.777  1.00  0.00     0.037 A 
ATOM      5  C3  UNK     1       0.182  34.782 232.400  1.00  0.00     0.019 A 
ATOM      6  C2  UNK     1       0.485  35.884 231.599  1.00  0.00     0.048 A 
ATOM      7  C7  UNK     1       0.993  37.051 232.177  1.00  0.00     0.019 A 
ATOM      8  C6  UNK     1       1.201  37.111 233.554  1.00  0.00     0.037 A 
BRANCH   6   9
ATOM      9  C1  UNK     1       0.258  35.821 230.116  1.00  0.00     0.417 C 
ATOM     10  F1  UNK     1      -0.210  36.984 229.710  1.00  0.00    -0.166 F 
ATOM     11  F2  UNK     1       1.398  35.560 229.501  1.00  0.00    -0.166 F 
ATOM     12  F3  UNK     1      -0.619  34.879 229.822  1.00  0.00    -0.166 F 
ENDBRANCH   6   9
ENDBRANCH   2   3
ENDBRANCH   1   2
BRANCH   1  13
ATOM     13  C9  UNK     1       2.326  37.290 237.342  1.00  0.00     0.067 C 
BRANCH  13  14
ATOM     14  C10 UNK     1       2.230  38.630 236.609  1.00  0.00     0.272 C 
BRANCH  14  15
ATOM     15  N1  UNK     1       0.946  39.294 236.760  1.00  0.00     0.079 N 
ATOM     16  C11 UNK     1       0.417  39.580 238.082  1.00  0.00     0.306 C 
ATOM     17  H17 UNK     1       1.039  40.179 236.304  1.00  0.00     0.315 HD
ENDBRANCH  14  15
ENDBRANCH  13  14
ENDBRANCH   1  13
BRANCH   1  18
ATOM     18  C12 UNK     1       2.784  34.849 236.966  1.00  0.00    -0.029 A 
ATOM     19  C13 UNK     1       3.018  33.736 236.154  1.00  0.00     0.010 A 
ATOM     20  C14 UNK     1       3.399  32.518 236.719  1.00  0.00     0.001 A 
ATOM     21  C15 UNK     1       3.542  32.403 238.103  1.00  0.00     0.000 A 
ATOM     22  C16 UNK     1       3.305  33.510 238.918  1.00  0.00     0.001 A 
ATOM     23  C17 UNK     1       2.924  34.729 238.354  1.00  0.00     0.010 A 
ENDBRANCH   1  18
TORSDOF 7
ENDMDL
