MODEL 1
REMARK VINA RESULT:      -6.4      0.000      0.000
REMARK  2 active torsions:
REMARK  status: ('A' for Active; 'I' for Inactive)
REMARK    1  A    between atoms: C5_7  and  C7_9 
REMARK    2  A    between atoms: C14_16  and  N1_17 
ROOT
ATOM      1  C7  UNK     1       0.040  35.530 235.408  1.00  0.00     0.052 C 
ATOM      2  C8  UNK     1       0.243  35.627 233.928  1.00  0.00    -0.041 A 
ATOM      3  C9  UNK     1       0.518  36.879 233.366  1.00  0.00     0.008 A 
ATOM      4  C10 UNK     1       0.696  37.028 231.993  1.00  0.00     0.001 A 
ATOM      5  C11 UNK     1       0.607  35.917 231.163  1.00  0.00     0.001 A 
ATOM      6  C12 UNK     1       0.329  34.666 231.711  1.00  0.00     0.010 A 
ATOM      7  C13 UNK     1       0.144  34.509 233.085  1.00  0.00    -0.018 A 
ATOM      8  C14 UNK     1      -0.151  33.138 233.595  1.00  0.00     0.253 C 
ATOM      9  C16 UNK     1      -0.731  33.192 235.009  1.00  0.00     0.041 C 
ATOM     10  C17 UNK     1       0.122  34.084 235.901  1.00  0.00     0.016 C 
ENDROOT
BRANCH   1  11
ATOM     11  C5  UNK     1       0.968  36.394 236.188  1.00  0.00    -0.048 A 
ATOM     12  C4  UNK     1       2.347  36.147 236.245  1.00  0.00     0.009 A 
ATOM     13  C3  UNK     1       3.188  36.978 236.991  1.00  0.00     0.026 A 
ATOM     14  C1  UNK     1       2.634  38.055 237.684  1.00  0.00     0.055 A 
ATOM     15 Cl1  UNK     1       3.634  39.173 238.663  1.00  0.00    -0.083 Cl
ATOM     16  C2  UNK     1       1.278  38.291 237.630  1.00  0.00     0.056 A 
ATOM     17 Cl2  UNK     1       0.645  39.691 238.538  1.00  0.00    -0.083 Cl
ATOM     18  C6  UNK     1       0.431  37.471 236.888  1.00  0.00     0.033 A 
ENDBRANCH   1  11
BRANCH   8  19
ATOM     19  N1  UNK     1       1.052  32.315 233.551  1.00  0.00     0.088 N 
ATOM     20  C15 UNK     1       1.033  31.007 232.912  1.00  0.00     0.307 C 
ATOM     21  H16 UNK     1       1.734  32.853 233.056  1.00  0.00     0.316 HD
ENDBRANCH   8  19
TORSDOF 2
ENDMDL
MODEL 2
REMARK VINA RESULT:      -6.4      8.527      9.824
REMARK  2 active torsions:
REMARK  status: ('A' for Active; 'I' for Inactive)
REMARK    1  A    between atoms: C5_7  and  C7_9 
REMARK    2  A    between atoms: C14_16  and  N1_17 
ROOT
ATOM      1  C7  UNK     1      -2.162  42.209 228.724  1.00  0.00     0.052 C 
ATOM      2  C8  UNK     1      -2.709  42.092 227.335  1.00  0.00    -0.041 A 
ATOM      3  C9  UNK     1      -2.160  42.890 226.325  1.00  0.00     0.008 A 
ATOM      4  C10 UNK     1      -2.645  42.836 225.020  1.00  0.00     0.001 A 
ATOM      5  C11 UNK     1      -3.687  41.970 224.711  1.00  0.00     0.001 A 
ATOM      6  C12 UNK     1      -4.245  41.174 225.709  1.00  0.00     0.010 A 
ATOM      7  C13 UNK     1      -3.768  41.227 227.019  1.00  0.00    -0.018 A 
ATOM      8  C14 UNK     1      -4.418  40.344 228.032  1.00  0.00     0.253 C 
ATOM      9  C16 UNK     1      -4.091  40.806 229.453  1.00  0.00     0.041 C 
ATOM     10  C17 UNK     1      -2.593  41.037 229.607  1.00  0.00     0.016 C 
ENDROOT
BRANCH   1  11
ATOM     11  C5  UNK     1      -0.682  42.366 228.762  1.00  0.00    -0.048 A 
ATOM     12  C4  UNK     1       0.166  41.664 227.894  1.00  0.00     0.009 A 
ATOM     13  C3  UNK     1       1.551  41.833 227.961  1.00  0.00     0.026 A 
ATOM     14  C1  UNK     1       2.081  42.708 228.910  1.00  0.00     0.055 A 
ATOM     15 Cl1  UNK     1       3.843  42.990 229.069  1.00  0.00    -0.083 Cl
ATOM     16  C2  UNK     1       1.245  43.392 229.766  1.00  0.00     0.056 A 
ATOM     17 Cl2  UNK     1       1.996  44.497 230.950  1.00  0.00    -0.083 Cl
ATOM     18  C6  UNK     1      -0.137  43.232 229.706  1.00  0.00     0.033 A 
ENDBRANCH   1  11
BRANCH   8  19
ATOM     19  N1  UNK     1      -4.014  38.958 227.824  1.00  0.00     0.088 N 
ATOM     20  C15 UNK     1      -4.504  37.904 228.702  1.00  0.00     0.307 C 
ATOM     21  H16 UNK     1      -4.326  38.716 226.905  1.00  0.00     0.316 HD
ENDBRANCH   8  19
TORSDOF 2
ENDMDL
MODEL 3
REMARK VINA RESULT:      -6.3      9.068     11.087
REMARK  2 active torsions:
REMARK  status: ('A' for Active; 'I' for Inactive)
REMARK    1  A    between atoms: C5_7  and  C7_9 
REMARK    2  A    between atoms: C14_16  and  N1_17 
ROOT
ATOM      1  C7  UNK     1      -1.200  42.190 226.796  1.00  0.00     0.052 C 
ATOM      2  C8  UNK     1      -2.282  41.674 227.693  1.00  0.00    -0.041 A 
ATOM      3  C9  UNK     1      -1.922  41.015 228.874  1.00  0.00     0.008 A 
ATOM      4  C10 UNK     1      -2.889  40.499 229.733  1.00  0.00     0.001 A 
ATOM      5  C11 UNK     1      -4.235  40.645 229.420  1.00  0.00     0.001 A 
ATOM      6  C12 UNK     1      -4.606  41.295 228.245  1.00  0.00     0.010 A 
ATOM      7  C13 UNK     1      -3.643  41.810 227.376  1.00  0.00    -0.018 A 
ATOM      8  C14 UNK     1      -4.119  42.493 226.137  1.00  0.00     0.253 C 
ATOM      9  C16 UNK     1      -2.989  42.621 225.113  1.00  0.00     0.041 C 
ATOM     10  C17 UNK     1      -1.737  43.188 225.769  1.00  0.00     0.016 C 
ENDROOT
BRANCH   1  11
ATOM     11  C5  UNK     1      -0.052  42.781 227.538  1.00  0.00    -0.048 A 
ATOM     12  C4  UNK     1       1.073  42.026 227.898  1.00  0.00     0.009 A 
ATOM     13  C3  UNK     1       2.130  42.614 228.598  1.00  0.00     0.026 A 
ATOM     14  C1  UNK     1       2.047  43.964 228.941  1.00  0.00     0.055 A 
ATOM     15 Cl1  UNK     1       3.353  44.802 229.835  1.00  0.00    -0.083 Cl
ATOM     16  C2  UNK     1       0.937  44.702 228.590  1.00  0.00     0.056 A 
ATOM     17 Cl2  UNK     1       0.906  46.424 229.059  1.00  0.00    -0.083 Cl
ATOM     18  C6  UNK     1      -0.121  44.126 227.890  1.00  0.00     0.033 A 
ENDBRANCH   1  11
BRANCH   8  19
ATOM     19  N1  UNK     1      -4.680  43.799 226.465  1.00  0.00     0.088 N 
ATOM     20  C15 UNK     1      -6.059  44.119 226.127  1.00  0.00     0.307 C 
ATOM     21  H16 UNK     1      -4.615  43.882 227.460  1.00  0.00     0.316 HD
ENDBRANCH   8  19
TORSDOF 2
ENDMDL
MODEL 4
REMARK VINA RESULT:      -6.3      3.886      6.326
REMARK  2 active torsions:
REMARK  status: ('A' for Active; 'I' for Inactive)
REMARK    1  A    between atoms: C5_7  and  C7_9 
REMARK    2  A    between atoms: C14_16  and  N1_17 
ROOT
ATOM      1  C7  UNK     1       0.355  36.430 235.239  1.00  0.00     0.052 C 
ATOM      2  C8  UNK     1       1.411  35.710 236.018  1.00  0.00    -0.041 A 
ATOM      3  C9  UNK     1       1.755  34.406 235.643  1.00  0.00     0.008 A 
ATOM      4  C10 UNK     1       2.716  33.685 236.347  1.00  0.00     0.001 A 
ATOM      5  C11 UNK     1       3.353  34.268 237.435  1.00  0.00     0.001 A 
ATOM      6  C12 UNK     1       3.016  35.564 237.821  1.00  0.00     0.010 A 
ATOM      7  C13 UNK     1       2.050  36.291 237.125  1.00  0.00    -0.018 A 
ATOM      8  C14 UNK     1       1.743  37.673 237.600  1.00  0.00     0.253 C 
ATOM      9  C16 UNK     1       0.414  38.167 237.027  1.00  0.00     0.041 C 
ATOM     10  C17 UNK     1       0.361  37.933 235.524  1.00  0.00     0.016 C 
ENDROOT
BRANCH   1  11
ATOM     11  C5  UNK     1       0.434  36.182 233.773  1.00  0.00    -0.048 A 
ATOM     12  C4  UNK     1       1.106  37.054 232.904  1.00  0.00     0.009 A 
ATOM     13  C3  UNK     1       1.156  36.792 231.532  1.00  0.00     0.026 A 
ATOM     14  C1  UNK     1       0.522  35.652 231.037  1.00  0.00     0.055 A 
ATOM     15 Cl1  UNK     1       0.535  35.234 229.295  1.00  0.00    -0.083 Cl
ATOM     16  C2  UNK     1      -0.143  34.800 231.893  1.00  0.00     0.056 A 
ATOM     17 Cl2  UNK     1      -0.925  33.360 231.187  1.00  0.00    -0.083 Cl
ATOM     18  C6  UNK     1      -0.197  35.051 233.263  1.00  0.00     0.033 A 
ENDBRANCH   1  11
BRANCH   8  19
ATOM     19  N1  UNK     1       2.833  38.578 237.252  1.00  0.00     0.088 N 
ATOM     20  C15 UNK     1       3.624  39.220 238.292  1.00  0.00     0.307 C 
ATOM     21  H16 UNK     1       3.478  38.036 236.713  1.00  0.00     0.316 HD
ENDBRANCH   8  19
TORSDOF 2
ENDMDL
MODEL 5
REMARK VINA RESULT:      -6.2      6.589      8.782
REMARK  2 active torsions:
REMARK  status: ('A' for Active; 'I' for Inactive)
REMARK    1  A    between atoms: C5_7  and  C7_9 
REMARK    2  A    between atoms: C14_16  and  N1_17 
ROOT
ATOM      1  C7  UNK     1      -2.987  40.357 229.753  1.00  0.00     0.052 C 
ATOM      2  C8  UNK     1      -2.328  41.392 228.896  1.00  0.00    -0.041 A 
ATOM      3  C9  UNK     1      -1.092  41.912 229.296  1.00  0.00     0.008 A 
ATOM      4  C10 UNK     1      -0.446  42.891 228.546  1.00  0.00     0.001 A 
ATOM      5  C11 UNK     1      -1.031  43.357 227.375  1.00  0.00     0.001 A 
ATOM      6  C12 UNK     1      -2.264  42.851 226.968  1.00  0.00     0.010 A 
ATOM      7  C13 UNK     1      -2.921  41.874 227.718  1.00  0.00    -0.018 A 
ATOM      8  C14 UNK     1      -4.238  41.382 227.217  1.00  0.00     0.253 C 
ATOM      9  C16 UNK     1      -5.007  40.655 228.321  1.00  0.00     0.041 C 
ATOM     10  C17 UNK     1      -4.113  39.634 229.011  1.00  0.00     0.016 C 
ENDROOT
BRANCH   1  11
ATOM     11  C5  UNK     1      -2.030  39.370 230.325  1.00  0.00    -0.048 A 
ATOM     12  C4  UNK     1      -1.257  38.524 229.516  1.00  0.00     0.009 A 
ATOM     13  C3  UNK     1      -0.372  37.607 230.088  1.00  0.00     0.026 A 
ATOM     14  C1  UNK     1      -0.271  37.539 231.478  1.00  0.00     0.055 A 
ATOM     15 Cl1  UNK     1       0.838  36.397 232.299  1.00  0.00    -0.083 Cl
ATOM     16  C2  UNK     1      -1.036  38.368 232.270  1.00  0.00     0.056 A 
ATOM     17 Cl2  UNK     1      -0.848  38.227 234.039  1.00  0.00    -0.083 Cl
ATOM     18  C6  UNK     1      -1.921  39.287 231.710  1.00  0.00     0.033 A 
ENDBRANCH   1  11
BRANCH   8  19
ATOM     19  N1  UNK     1      -4.045  40.519 226.057  1.00  0.00     0.088 N 
ATOM     20  C15 UNK     1      -4.601  40.884 224.761  1.00  0.00     0.307 C 
ATOM     21  H16 UNK     1      -3.056  40.457 225.923  1.00  0.00     0.316 HD
ENDBRANCH   8  19
TORSDOF 2
ENDMDL
MODEL 6
REMARK VINA RESULT:      -6.2      3.527      5.762
REMARK  2 active torsions:
REMARK  status: ('A' for Active; 'I' for Inactive)
REMARK    1  A    between atoms: C5_7  and  C7_9 
REMARK    2  A    between atoms: C14_16  and  N1_17 
ROOT
ATOM      1  C7  UNK     1       2.327  36.214 236.206  1.00  0.00     0.052 C 
ATOM      2  C8  UNK     1       2.746  37.034 237.387  1.00  0.00    -0.041 A 
ATOM      3  C9  UNK     1       2.696  38.429 237.292  1.00  0.00     0.008 A 
ATOM      4  C10 UNK     1       3.094  39.237 238.354  1.00  0.00     0.001 A 
ATOM      5  C11 UNK     1       3.542  38.653 239.532  1.00  0.00     0.001 A 
ATOM      6  C12 UNK     1       3.601  37.265 239.637  1.00  0.00     0.010 A 
ATOM      7  C13 UNK     1       3.210  36.448 238.575  1.00  0.00    -0.018 A 
ATOM      8  C14 UNK     1       3.303  34.970 238.764  1.00  0.00     0.253 C 
ATOM      9  C16 UNK     1       3.249  34.242 237.421  1.00  0.00     0.041 C 
ATOM     10  C17 UNK     1       2.084  34.752 236.584  1.00  0.00     0.016 C 
ENDROOT
BRANCH   1  11
ATOM     11  C5  UNK     1       1.139  36.768 235.498  1.00  0.00    -0.048 A 
ATOM     12  C4  UNK     1       1.260  37.603 234.378  1.00  0.00     0.009 A 
ATOM     13  C3  UNK     1       0.123  38.107 233.741  1.00  0.00     0.026 A 
ATOM     14  C1  UNK     1      -1.136  37.773 234.239  1.00  0.00     0.055 A 
ATOM     15 Cl1  UNK     1      -2.648  38.370 233.487  1.00  0.00    -0.083 Cl
ATOM     16  C2  UNK     1      -1.251  36.956 235.343  1.00  0.00     0.056 A 
ATOM     17 Cl2  UNK     1      -2.896  36.568 235.919  1.00  0.00    -0.083 Cl
ATOM     18  C6  UNK     1      -0.124  36.446 235.985  1.00  0.00     0.033 A 
ENDBRANCH   1  11
BRANCH   8  19
ATOM     19  N1  UNK     1       2.243  34.509 239.655  1.00  0.00     0.088 N 
ATOM     20  C15 UNK     1       2.566  33.870 240.922  1.00  0.00     0.307 C 
ATOM     21  H16 UNK     1       1.707  35.321 239.885  1.00  0.00     0.316 HD
ENDBRANCH   8  19
TORSDOF 2
ENDMDL
MODEL 7
REMARK VINA RESULT:      -6.1      5.315      7.547
REMARK  2 active torsions:
REMARK  status: ('A' for Active; 'I' for Inactive)
REMARK    1  A    between atoms: C5_7  and  C7_9 
REMARK    2  A    between atoms: C14_16  and  N1_17 
ROOT
ATOM      1  C7  UNK     1      -2.719  38.353 231.245  1.00  0.00     0.052 C 
ATOM      2  C8  UNK     1      -1.406  37.638 231.172  1.00  0.00    -0.041 A 
ATOM      3  C9  UNK     1      -0.863  37.350 229.915  1.00  0.00     0.008 A 
ATOM      4  C10 UNK     1       0.345  36.669 229.791  1.00  0.00     0.001 A 
ATOM      5  C11 UNK     1       1.031  36.272 230.933  1.00  0.00     0.001 A 
ATOM      6  C12 UNK     1       0.498  36.549 232.191  1.00  0.00     0.010 A 
ATOM      7  C13 UNK     1      -0.715  37.226 232.323  1.00  0.00    -0.018 A 
ATOM      8  C14 UNK     1      -1.220  37.484 233.704  1.00  0.00     0.253 C 
ATOM      9  C16 UNK     1      -2.707  37.840 233.685  1.00  0.00     0.041 C 
ATOM     10  C17 UNK     1      -2.986  38.914 232.643  1.00  0.00     0.016 C 
ENDROOT
BRANCH   1  11
ATOM     11  C5  UNK     1      -2.861  39.427 230.223  1.00  0.00    -0.048 A 
ATOM     12  C4  UNK     1      -3.899  39.428 229.281  1.00  0.00     0.009 A 
ATOM     13  C3  UNK     1      -3.999  40.450 228.333  1.00  0.00     0.026 A 
ATOM     14  C1  UNK     1      -3.046  41.469 228.334  1.00  0.00     0.055 A 
ATOM     15 Cl1  UNK     1      -3.094  42.821 227.160  1.00  0.00    -0.083 Cl
ATOM     16  C2  UNK     1      -2.023  41.463 229.259  1.00  0.00     0.056 A 
ATOM     17 Cl2  UNK     1      -0.846  42.802 229.201  1.00  0.00    -0.083 Cl
ATOM     18  C6  UNK     1      -1.916  40.449 230.209  1.00  0.00     0.033 A 
ENDBRANCH   1  11
BRANCH   8  19
ATOM     19  N1  UNK     1      -0.436  38.538 234.338  1.00  0.00     0.088 N 
ATOM     20  C15 UNK     1       0.373  38.254 235.515  1.00  0.00     0.307 C 
ATOM     21  H16 UNK     1       0.201  38.864 233.639  1.00  0.00     0.316 HD
ENDBRANCH   8  19
TORSDOF 2
ENDMDL
MODEL 8
REMARK VINA RESULT:      -6.1      3.527      5.650
REMARK  2 active torsions:
REMARK  status: ('A' for Active; 'I' for Inactive)
REMARK    1  A    between atoms: C5_7  and  C7_9 
REMARK    2  A    between atoms: C14_16  and  N1_17 
ROOT
ATOM      1  C7  UNK     1       1.792  36.200 235.772  1.00  0.00     0.052 C 
ATOM      2  C8  UNK     1       2.335  37.052 236.878  1.00  0.00    -0.041 A 
ATOM      3  C9  UNK     1       2.090  38.429 236.849  1.00  0.00     0.008 A 
ATOM      4  C10 UNK     1       2.589  39.269 237.842  1.00  0.00     0.001 A 
ATOM      5  C11 UNK     1       3.337  38.734 238.884  1.00  0.00     0.001 A 
ATOM      6  C12 UNK     1       3.590  37.364 238.921  1.00  0.00     0.010 A 
ATOM      7  C13 UNK     1       3.099  36.516 237.927  1.00  0.00    -0.018 A 
ATOM      8  C14 UNK     1       3.414  35.062 238.035  1.00  0.00     0.253 C 
ATOM      9  C16 UNK     1       3.182  34.350 236.702  1.00  0.00     0.041 C 
ATOM     10  C17 UNK     1       1.818  34.713 236.133  1.00  0.00     0.016 C 
ENDROOT
BRANCH   1  11
ATOM     11  C5  UNK     1       0.426  36.601 235.336  1.00  0.00    -0.048 A 
ATOM     12  C4  UNK     1      -0.717  36.301 236.091  1.00  0.00     0.009 A 
ATOM     13  C3  UNK     1      -1.984  36.690 235.649  1.00  0.00     0.026 A 
ATOM     14  C1  UNK     1      -2.097  37.378 234.440  1.00  0.00     0.055 A 
ATOM     15 Cl1  UNK     1      -3.678  37.918 233.795  1.00  0.00    -0.083 Cl
ATOM     16  C2  UNK     1      -0.972  37.667 233.698  1.00  0.00     0.056 A 
ATOM     17 Cl2  UNK     1      -1.196  38.555 232.166  1.00  0.00    -0.083 Cl
ATOM     18  C6  UNK     1       0.296  37.285 234.132  1.00  0.00     0.033 A 
ENDBRANCH   1  11
BRANCH   8  19
ATOM     19  N1  UNK     1       2.623  34.453 239.099  1.00  0.00     0.088 N 
ATOM     20  C15 UNK     1       3.108  33.273 239.801  1.00  0.00     0.307 C 
ATOM     21  H16 UNK     1       2.512  35.161 239.797  1.00  0.00     0.316 HD
ENDBRANCH   8  19
TORSDOF 2
ENDMDL
MODEL 9
REMARK VINA RESULT:      -6.0      3.955      6.254
REMARK  2 active torsions:
REMARK  status: ('A' for Active; 'I' for Inactive)
REMARK    1  A    between atoms: C5_7  and  C7_9 
REMARK    2  A    between atoms: C14_16  and  N1_17 
ROOT
ATOM      1  C7  UNK     1       0.091  38.172 236.272  1.00  0.00     0.052 C 
ATOM      2  C8  UNK     1       0.271  36.942 237.107  1.00  0.00    -0.041 A 
ATOM      3  C9  UNK     1      -0.376  35.763 236.720  1.00  0.00     0.008 A 
ATOM      4  C10 UNK     1      -0.258  34.597 237.472  1.00  0.00     0.001 A 
ATOM      5  C11 UNK     1       0.520  34.598 238.624  1.00  0.00     0.001 A 
ATOM      6  C12 UNK     1       1.166  35.767 239.022  1.00  0.00     0.010 A 
ATOM      7  C13 UNK     1       1.048  36.941 238.277  1.00  0.00    -0.018 A 
ATOM      8  C14 UNK     1       1.768  38.152 238.769  1.00  0.00     0.253 C 
ATOM      9  C16 UNK     1       1.221  39.420 238.112  1.00  0.00     0.041 C 
ATOM     10  C17 UNK     1       1.132  39.243 236.602  1.00  0.00     0.016 C 
ENDROOT
BRANCH   1  11
ATOM     11  C5  UNK     1       0.084  37.894 234.809  1.00  0.00    -0.048 A 
ATOM     12  C4  UNK     1       1.181  37.318 234.153  1.00  0.00     0.009 A 
ATOM     13  C3  UNK     1       1.140  37.075 232.778  1.00  0.00     0.026 A 
ATOM     14  C1  UNK     1      -0.008  37.419 232.064  1.00  0.00     0.055 A 
ATOM     15 Cl1  UNK     1      -0.152  37.143 230.299  1.00  0.00    -0.083 Cl
ATOM     16  C2  UNK     1      -1.083  37.989 232.710  1.00  0.00     0.056 A 
ATOM     17 Cl2  UNK     1      -2.518  38.397 231.731  1.00  0.00    -0.083 Cl
ATOM     18  C6  UNK     1      -1.053  38.234 234.082  1.00  0.00     0.033 A 
ENDBRANCH   1  11
BRANCH   8  19
ATOM     19  N1  UNK     1       3.201  38.015 238.533  1.00  0.00     0.088 N 
ATOM     20  C15 UNK     1       4.160  38.360 239.573  1.00  0.00     0.307 C 
ATOM     21  H16 UNK     1       3.354  37.049 238.328  1.00  0.00     0.316 HD
ENDBRANCH   8  19
TORSDOF 2
ENDMDL
