MODEL 1
REMARK VINA RESULT:      -7.3      0.000      0.000
REMARK  5 active torsions:
REMARK  status: ('A' for Active; 'I' for Inactive)
REMARK    1  A    between atoms: C1_2  and  C2_5 
REMARK    2  A    between atoms: C8_13  and  C9_14 
REMARK    3  A    between atoms: C11_19  and  C12_20 
REMARK    4  A    between atoms: C12_20  and  O1_21 
REMARK    5  A    between atoms: C12_20  and  C13_22 
ROOT
ATOM      1  C2  UNK     1      -4.048  41.036 227.402  1.00  0.00     0.075 A 
ATOM      2  C3  UNK     1      -4.254  41.999 226.418  1.00  0.00     0.018 A 
ATOM      3  C4  UNK     1      -3.451  43.110 226.300  1.00  0.00     0.002 A 
ATOM      4  C5  UNK     1      -2.408  43.239 227.184  1.00  0.00     0.014 A 
ATOM      5  C6  UNK     1      -2.171  42.282 228.171  1.00  0.00     0.000 A 
ATOM      6  C7  UNK     1      -2.993  41.173 228.288  1.00  0.00     0.058 A 
ATOM      7  N1  UNK     1      -2.768  40.255 229.224  1.00  0.00    -0.351 N 
ATOM      8  H1  UNK     1      -3.385  39.444 229.279  1.00  0.00     0.166 HD
ATOM      9  C8  UNK     1      -1.773  40.359 230.080  1.00  0.00     0.117 A 
ATOM     10  C10 UNK     1      -0.923  41.447 230.025  1.00  0.00     0.045 A 
ATOM     11  C11 UNK     1      -1.126  42.421 229.067  1.00  0.00    -0.013 A 
ENDROOT
BRANCH  11  12
ATOM     12  C12 UNK     1      -0.256  43.485 229.006  1.00  0.00     0.185 C 
BRANCH  12  13
ATOM     13  O1  UNK     1      -0.666  44.340 230.059  1.00  0.00    -0.389 OA
ATOM     14  H6  UNK     1      -1.011  43.818 230.774  1.00  0.00     0.210 HD
ENDBRANCH  12  13
BRANCH  12  15
ATOM     15  C13 UNK     1       1.162  43.045 229.303  1.00  0.00     0.253 C 
ATOM     16  C14 UNK     1       1.751  44.070 230.249  1.00  0.00     0.038 C 
ATOM     17  C15 UNK     1       3.167  43.700 230.598  1.00  0.00     0.004 C 
ATOM     18  C16 UNK     1       3.966  43.567 229.328  1.00  0.00     0.030 C 
ATOM     19  C17 UNK     1       3.321  42.516 228.444  1.00  0.00     0.270 C 
ATOM     20  N2  UNK     1       1.964  42.924 228.081  1.00  0.00     0.090 N 
ATOM     21  H16 UNK     1       1.993  43.806 227.610  1.00  0.00     0.316 HD
ENDBRANCH  12  15
ENDBRANCH  11  12
BRANCH   9  22
ATOM     22  C9  UNK     1      -1.653  39.337 230.991  1.00  0.00     0.432 C 
ATOM     23  F4  UNK     1      -1.638  39.788 232.158  1.00  0.00    -0.165 F 
ATOM     24  F5  UNK     1      -2.637  38.504 230.844  1.00  0.00    -0.165 F 
ATOM     25  F6  UNK     1      -0.591  38.761 230.789  1.00  0.00    -0.165 F 
ENDBRANCH   9  22
BRANCH   1  26
ATOM     26  C1  UNK     1      -4.847  39.921 227.517  1.00  0.00     0.419 C 
ATOM     27  F1  UNK     1      -5.778  39.948 226.607  1.00  0.00    -0.166 F 
ATOM     28  F2  UNK     1      -4.253  38.862 227.417  1.00  0.00    -0.166 F 
ATOM     29  F3  UNK     1      -5.367  39.979 228.613  1.00  0.00    -0.166 F 
ENDBRANCH   1  26
TORSDOF 5
ENDMDL
MODEL 2
REMARK VINA RESULT:      -7.1      7.322      8.793
REMARK  5 active torsions:
REMARK  status: ('A' for Active; 'I' for Inactive)
REMARK    1  A    between atoms: C1_2  and  C2_5 
REMARK    2  A    between atoms: C8_13  and  C9_14 
REMARK    3  A    between atoms: C11_19  and  C12_20 
REMARK    4  A    between atoms: C12_20  and  O1_21 
REMARK    5  A    between atoms: C12_20  and  C13_22 
ROOT
ATOM      1  C2  UNK     1      -0.013  34.573 231.848  1.00  0.00     0.075 A 
ATOM      2  C3  UNK     1       0.373  35.406 230.800  1.00  0.00     0.018 A 
ATOM      3  C4  UNK     1       0.949  36.636 231.016  1.00  0.00     0.002 A 
ATOM      4  C5  UNK     1       1.154  37.024 232.318  1.00  0.00     0.014 A 
ATOM      5  C6  UNK     1       0.789  36.204 233.385  1.00  0.00     0.000 A 
ATOM      6  C7  UNK     1       0.199  34.971 233.156  1.00  0.00     0.058 A 
ATOM      7  N1  UNK     1      -0.146  34.183 234.171  1.00  0.00    -0.351 N 
ATOM      8  H1  UNK     1      -0.570  33.277 233.971  1.00  0.00     0.166 HD
ATOM      9  C8  UNK     1       0.043  34.536 235.425  1.00  0.00     0.117 A 
ATOM     10  C10 UNK     1       0.616  35.758 235.722  1.00  0.00     0.045 A 
ATOM     11  C11 UNK     1       0.987  36.603 234.695  1.00  0.00    -0.013 A 
ENDROOT
BRANCH  11  12
ATOM     12  C12 UNK     1       1.582  37.805 235.004  1.00  0.00     0.185 C 
BRANCH  12  13
ATOM     13  O1  UNK     1       0.537  38.756 234.892  1.00  0.00    -0.389 OA
ATOM     14  H6  UNK     1      -0.179  38.383 234.391  1.00  0.00     0.210 HD
ENDBRANCH  12  13
BRANCH  12  15
ATOM     15  C13 UNK     1       2.059  37.821 236.440  1.00  0.00     0.253 C 
ATOM     16  C14 UNK     1       1.563  39.113 237.055  1.00  0.00     0.038 C 
ATOM     17  C15 UNK     1       1.996  39.203 238.492  1.00  0.00     0.004 C 
ATOM     18  C16 UNK     1       3.496  39.075 238.562  1.00  0.00     0.030 C 
ATOM     19  C17 UNK     1       3.910  37.755 237.941  1.00  0.00     0.270 C 
ATOM     20  N2  UNK     1       3.519  37.714 236.532  1.00  0.00     0.090 N 
ATOM     21  H16 UNK     1       3.943  38.477 236.043  1.00  0.00     0.316 HD
ENDBRANCH  12  15
ENDBRANCH  11  12
BRANCH   9  22
ATOM     22  C9  UNK     1      -0.355  33.625 236.374  1.00  0.00     0.432 C 
ATOM     23  F4  UNK     1       0.533  33.478 237.242  1.00  0.00    -0.165 F 
ATOM     24  F5  UNK     1      -1.460  34.025 236.925  1.00  0.00    -0.165 F 
ATOM     25  F6  UNK     1      -0.536  32.546 235.823  1.00  0.00    -0.165 F 
ENDBRANCH   9  22
BRANCH   1  26
ATOM     26  C1  UNK     1      -0.584  33.339 231.633  1.00  0.00     0.419 C 
ATOM     27  F1  UNK     1       0.178  32.407 232.129  1.00  0.00    -0.166 F 
ATOM     28  F2  UNK     1      -1.698  33.209 232.110  1.00  0.00    -0.166 F 
ATOM     29  F3  UNK     1      -0.651  33.193 230.430  1.00  0.00    -0.166 F 
ENDBRANCH   1  26
TORSDOF 5
ENDMDL
MODEL 3
REMARK VINA RESULT:      -6.9      6.673     10.104
REMARK  5 active torsions:
REMARK  status: ('A' for Active; 'I' for Inactive)
REMARK    1  A    between atoms: C1_2  and  C2_5 
REMARK    2  A    between atoms: C8_13  and  C9_14 
REMARK    3  A    between atoms: C11_19  and  C12_20 
REMARK    4  A    between atoms: C12_20  and  O1_21 
REMARK    5  A    between atoms: C12_20  and  C13_22 
ROOT
ATOM      1  C2  UNK     1       2.293  35.107 236.887  1.00  0.00     0.075 A 
ATOM      2  C3  UNK     1       2.211  33.916 236.169  1.00  0.00     0.018 A 
ATOM      3  C4  UNK     1       1.282  33.724 235.174  1.00  0.00     0.002 A 
ATOM      4  C5  UNK     1       0.429  34.763 234.888  1.00  0.00     0.014 A 
ATOM      5  C6  UNK     1       0.498  35.969 235.583  1.00  0.00     0.000 A 
ATOM      6  C7  UNK     1       1.432  36.149 236.592  1.00  0.00     0.058 A 
ATOM      7  N1  UNK     1       1.505  37.301 237.253  1.00  0.00    -0.351 N 
ATOM      8  H1  UNK     1       2.209  37.406 237.984  1.00  0.00     0.166 HD
ATOM      9  C8  UNK     1       0.699  38.309 236.994  1.00  0.00     0.117 A 
ATOM     10  C10 UNK     1      -0.262  38.190 236.007  1.00  0.00     0.045 A 
ATOM     11  C11 UNK     1      -0.369  37.010 235.300  1.00  0.00    -0.013 A 
ENDROOT
BRANCH  11  12
ATOM     12  C12 UNK     1      -1.312  36.915 234.302  1.00  0.00     0.185 C 
BRANCH  12  13
ATOM     13  O1  UNK     1      -2.464  37.538 234.842  1.00  0.00    -0.389 OA
ATOM     14  H6  UNK     1      -3.216  36.970 234.725  1.00  0.00     0.210 HD
ENDBRANCH  12  13
BRANCH  12  15
ATOM     15  C13 UNK     1      -0.894  37.710 233.083  1.00  0.00     0.253 C 
ATOM     16  C14 UNK     1      -2.011  38.691 232.794  1.00  0.00     0.038 C 
ATOM     17  C15 UNK     1      -1.668  39.527 231.591  1.00  0.00     0.004 C 
ATOM     18  C16 UNK     1      -1.389  38.616 230.424  1.00  0.00     0.030 C 
ATOM     19  C17 UNK     1      -0.254  37.677 230.787  1.00  0.00     0.270 C 
ATOM     20  N2  UNK     1      -0.632  36.844 231.929  1.00  0.00     0.090 N 
ATOM     21  H16 UNK     1      -1.457  36.324 231.706  1.00  0.00     0.316 HD
ENDBRANCH  12  15
ENDBRANCH  11  12
BRANCH   9  22
ATOM     22  C9  UNK     1       0.887  39.441 237.749  1.00  0.00     0.432 C 
ATOM     23  F4  UNK     1      -0.094  39.637 238.499  1.00  0.00    -0.165 F 
ATOM     24  F5  UNK     1       1.972  39.320 238.452  1.00  0.00    -0.165 F 
ATOM     25  F6  UNK     1       0.990  40.398 236.992  1.00  0.00    -0.165 F 
ENDBRANCH   9  22
BRANCH   1  26
ATOM     26  C1  UNK     1       3.227  35.303 237.879  1.00  0.00     0.419 C 
ATOM     27  F1  UNK     1       4.041  36.261 237.537  1.00  0.00    -0.166 F 
ATOM     28  F2  UNK     1       2.756  35.580 238.968  1.00  0.00    -0.166 F 
ATOM     29  F3  UNK     1       3.855  34.269 237.974  1.00  0.00    -0.166 F 
ENDBRANCH   1  26
TORSDOF 5
ENDMDL
MODEL 4
REMARK VINA RESULT:      -6.8      9.103     11.216
REMARK  5 active torsions:
REMARK  status: ('A' for Active; 'I' for Inactive)
REMARK    1  A    between atoms: C1_2  and  C2_5 
REMARK    2  A    between atoms: C8_13  and  C9_14 
REMARK    3  A    between atoms: C11_19  and  C12_20 
REMARK    4  A    between atoms: C12_20  and  O1_21 
REMARK    5  A    between atoms: C12_20  and  C13_22 
ROOT
ATOM      1  C2  UNK     1       2.269  38.027 238.685  1.00  0.00     0.075 A 
ATOM      2  C3  UNK     1       1.708  39.297 238.573  1.00  0.00     0.018 A 
ATOM      3  C4  UNK     1       0.993  39.686 237.464  1.00  0.00     0.002 A 
ATOM      4  C5  UNK     1       0.827  38.767 236.458  1.00  0.00     0.014 A 
ATOM      5  C6  UNK     1       1.367  37.484 236.550  1.00  0.00     0.000 A 
ATOM      6  C7  UNK     1       2.096  37.106 237.667  1.00  0.00     0.058 A 
ATOM      7  N1  UNK     1       2.608  35.882 237.763  1.00  0.00    -0.351 N 
ATOM      8  H1  UNK     1       3.132  35.630 238.601  1.00  0.00     0.166 HD
ATOM      9  C8  UNK     1       2.460  34.986 236.810  1.00  0.00     0.117 A 
ATOM     10  C10 UNK     1       1.753  35.303 235.665  1.00  0.00     0.045 A 
ATOM     11  C11 UNK     1       1.208  36.564 235.529  1.00  0.00    -0.013 A 
ENDROOT
BRANCH  11  12
ATOM     12  C12 UNK     1       0.484  36.858 234.397  1.00  0.00     0.185 C 
BRANCH  12  13
ATOM     13  O1  UNK     1       1.430  37.429 233.509  1.00  0.00    -0.389 OA
ATOM     14  H6  UNK     1       2.307  37.281 233.844  1.00  0.00     0.210 HD
ENDBRANCH  12  13
BRANCH  12  15
ATOM     15  C13 UNK     1      -0.045  35.596 233.748  1.00  0.00     0.253 C 
ATOM     16  C14 UNK     1       0.352  35.653 232.287  1.00  0.00     0.038 C 
ATOM     17  C15 UNK     1      -0.136  34.425 231.569  1.00  0.00     0.004 C 
ATOM     18  C16 UNK     1      -1.627  34.310 231.753  1.00  0.00     0.030 C 
ATOM     19  C17 UNK     1      -1.940  34.245 233.236  1.00  0.00     0.270 C 
ATOM     20  N2  UNK     1      -1.498  35.471 233.900  1.00  0.00     0.090 N 
ATOM     21  H16 UNK     1      -1.949  36.260 233.483  1.00  0.00     0.316 HD
ENDBRANCH  12  15
ENDBRANCH  11  12
BRANCH   9  22
ATOM     22  C9  UNK     1       3.036  33.760 237.040  1.00  0.00     0.432 C 
ATOM     23  F4  UNK     1       3.748  33.420 236.070  1.00  0.00    -0.165 F 
ATOM     24  F5  UNK     1       3.748  33.811 238.124  1.00  0.00    -0.165 F 
ATOM     25  F6  UNK     1       2.144  32.932 237.171  1.00  0.00    -0.165 F 
ENDBRANCH   9  22
BRANCH   1  26
ATOM     26  C1  UNK     1       2.980  37.634 239.797  1.00  0.00     0.419 C 
ATOM     27  F1  UNK     1       2.440  36.568 240.313  1.00  0.00    -0.166 F 
ATOM     28  F2  UNK     1       4.156  37.397 239.585  1.00  0.00    -0.166 F 
ATOM     29  F3  UNK     1       2.900  38.542 240.599  1.00  0.00    -0.166 F 
ENDBRANCH   1  26
TORSDOF 5
ENDMDL
MODEL 5
REMARK VINA RESULT:      -6.7      7.951     11.263
REMARK  5 active torsions:
REMARK  status: ('A' for Active; 'I' for Inactive)
REMARK    1  A    between atoms: C1_2  and  C2_5 
REMARK    2  A    between atoms: C8_13  and  C9_14 
REMARK    3  A    between atoms: C11_19  and  C12_20 
REMARK    4  A    between atoms: C12_20  and  O1_21 
REMARK    5  A    between atoms: C12_20  and  C13_22 
ROOT
ATOM      1  C2  UNK     1       0.937  36.335 234.447  1.00  0.00     0.075 A 
ATOM      2  C3  UNK     1       0.712  35.049 233.962  1.00  0.00     0.018 A 
ATOM      3  C4  UNK     1       0.447  33.988 234.796  1.00  0.00     0.002 A 
ATOM      4  C5  UNK     1       0.391  34.237 236.146  1.00  0.00     0.014 A 
ATOM      5  C6  UNK     1       0.600  35.517 236.657  1.00  0.00     0.000 A 
ATOM      6  C7  UNK     1       0.878  36.577 235.808  1.00  0.00     0.058 A 
ATOM      7  N1  UNK     1       1.073  37.802 236.290  1.00  0.00    -0.351 N 
ATOM      8  H1  UNK     1       1.266  38.563 235.640  1.00  0.00     0.166 HD
ATOM      9  C8  UNK     1       1.022  38.061 237.580  1.00  0.00     0.117 A 
ATOM     10  C10 UNK     1       0.761  37.046 238.481  1.00  0.00     0.045 A 
ATOM     11  C11 UNK     1       0.554  35.762 238.018  1.00  0.00    -0.013 A 
ENDROOT
BRANCH  11  12
ATOM     12  C12 UNK     1       0.268  34.766 238.923  1.00  0.00     0.185 C 
BRANCH  12  13
ATOM     13  O1  UNK     1       0.597  35.326 240.182  1.00  0.00    -0.389 OA
ATOM     14  H6  UNK     1       0.696  36.267 240.095  1.00  0.00     0.210 HD
ENDBRANCH  12  13
BRANCH  12  15
ATOM     15  C13 UNK     1      -1.214  34.455 238.938  1.00  0.00     0.253 C 
ATOM     16  C14 UNK     1      -1.933  35.722 238.523  1.00  0.00     0.038 C 
ATOM     17  C15 UNK     1      -3.419  35.494 238.509  1.00  0.00     0.004 C 
ATOM     18  C16 UNK     1      -3.854  35.007 239.867  1.00  0.00     0.030 C 
ATOM     19  C17 UNK     1      -3.101  33.733 240.201  1.00  0.00     0.270 C 
ATOM     20  N2  UNK     1      -1.663  33.994 240.255  1.00  0.00     0.090 N 
ATOM     21  H16 UNK     1      -1.476  34.700 240.939  1.00  0.00     0.316 HD
ENDBRANCH  12  15
ENDBRANCH  11  12
BRANCH   9  22
ATOM     22  C9  UNK     1       1.237  39.370 237.940  1.00  0.00     0.432 C 
ATOM     23  F4  UNK     1       0.323  39.774 238.692  1.00  0.00    -0.165 F 
ATOM     24  F5  UNK     1       2.386  39.475 238.535  1.00  0.00    -0.165 F 
ATOM     25  F6  UNK     1       1.232  40.056 236.926  1.00  0.00    -0.165 F 
ENDBRANCH   9  22
BRANCH   1  26
ATOM     26  C1  UNK     1       1.197  37.399 233.613  1.00  0.00     0.419 C 
ATOM     27  F1  UNK     1       0.146  38.163 233.531  1.00  0.00    -0.166 F 
ATOM     28  F2  UNK     1       2.141  38.090 233.956  1.00  0.00    -0.166 F 
ATOM     29  F3  UNK     1       1.430  36.932 232.517  1.00  0.00    -0.166 F 
ENDBRANCH   1  26
TORSDOF 5
ENDMDL
MODEL 6
REMARK VINA RESULT:      -6.7      2.894      4.988
REMARK  5 active torsions:
REMARK  status: ('A' for Active; 'I' for Inactive)
REMARK    1  A    between atoms: C1_2  and  C2_5 
REMARK    2  A    between atoms: C8_13  and  C9_14 
REMARK    3  A    between atoms: C11_19  and  C12_20 
REMARK    4  A    between atoms: C12_20  and  O1_21 
REMARK    5  A    between atoms: C12_20  and  C13_22 
ROOT
ATOM      1  C2  UNK     1      -1.908  42.611 227.519  1.00  0.00     0.075 A 
ATOM      2  C3  UNK     1      -0.715  43.157 227.985  1.00  0.00     0.018 A 
ATOM      3  C4  UNK     1      -0.106  42.712 229.135  1.00  0.00     0.002 A 
ATOM      4  C5  UNK     1      -0.708  41.684 229.818  1.00  0.00     0.014 A 
ATOM      5  C6  UNK     1      -1.896  41.111 229.367  1.00  0.00     0.000 A 
ATOM      6  C7  UNK     1      -2.508  41.574 228.213  1.00  0.00     0.058 A 
ATOM      7  N1  UNK     1      -3.639  41.027 227.775  1.00  0.00    -0.351 N 
ATOM      8  H1  UNK     1      -4.060  41.383 226.917  1.00  0.00     0.166 HD
ATOM      9  C8  UNK     1      -4.231  40.040 228.415  1.00  0.00     0.117 A 
ATOM     10  C10 UNK     1      -3.679  39.540 229.579  1.00  0.00     0.045 A 
ATOM     11  C11 UNK     1      -2.506  40.083 230.064  1.00  0.00    -0.013 A 
ENDROOT
BRANCH  11  12
ATOM     12  C12 UNK     1      -1.953  39.557 231.209  1.00  0.00     0.185 C 
BRANCH  12  13
ATOM     13  O1  UNK     1      -3.049  39.403 232.094  1.00  0.00    -0.389 OA
ATOM     14  H6  UNK     1      -2.966  40.020 232.811  1.00  0.00     0.210 HD
ENDBRANCH  12  13
BRANCH  12  15
ATOM     15  C13 UNK     1      -1.379  38.180 230.952  1.00  0.00     0.253 C 
ATOM     16  C14 UNK     1      -0.672  37.753 232.222  1.00  0.00     0.038 C 
ATOM     17  C15 UNK     1      -0.074  36.384 232.047  1.00  0.00     0.004 C 
ATOM     18  C16 UNK     1       0.848  36.400 230.856  1.00  0.00     0.030 C 
ATOM     19  C17 UNK     1       0.065  36.822 229.628  1.00  0.00     0.270 C 
ATOM     20  N2  UNK     1      -0.465  38.174 229.806  1.00  0.00     0.090 N 
ATOM     21  H16 UNK     1       0.289  38.810 229.974  1.00  0.00     0.316 HD
ENDBRANCH  12  15
ENDBRANCH  11  12
BRANCH   9  22
ATOM     22  C9  UNK     1      -5.390  39.566 227.850  1.00  0.00     0.432 C 
ATOM     23  F4  UNK     1      -5.840  38.605 228.512  1.00  0.00    -0.165 F 
ATOM     24  F5  UNK     1      -6.268  40.520 227.791  1.00  0.00    -0.165 F 
ATOM     25  F6  UNK     1      -5.136  39.168 226.720  1.00  0.00    -0.165 F 
ENDBRANCH   9  22
BRANCH   1  26
ATOM     26  C1  UNK     1      -2.516  43.051 226.364  1.00  0.00     0.419 C 
ATOM     27  F1  UNK     1      -2.874  42.031 225.638  1.00  0.00    -0.166 F 
ATOM     28  F2  UNK     1      -3.498  43.749 226.546  1.00  0.00    -0.166 F 
ATOM     29  F3  UNK     1      -1.684  43.693 225.758  1.00  0.00    -0.166 F 
ENDBRANCH   1  26
TORSDOF 5
ENDMDL
MODEL 7
REMARK VINA RESULT:      -6.6      7.177      8.736
REMARK  5 active torsions:
REMARK  status: ('A' for Active; 'I' for Inactive)
REMARK    1  A    between atoms: C1_2  and  C2_5 
REMARK    2  A    between atoms: C8_13  and  C9_14 
REMARK    3  A    between atoms: C11_19  and  C12_20 
REMARK    4  A    between atoms: C12_20  and  O1_21 
REMARK    5  A    between atoms: C12_20  and  C13_22 
ROOT
ATOM      1  C2  UNK     1      -0.943  35.850 232.953  1.00  0.00     0.075 A 
ATOM      2  C3  UNK     1       0.049  36.119 232.013  1.00  0.00     0.018 A 
ATOM      3  C4  UNK     1       1.151  36.885 232.311  1.00  0.00     0.002 A 
ATOM      4  C5  UNK     1       1.261  37.376 233.589  1.00  0.00     0.014 A 
ATOM      5  C6  UNK     1       0.289  37.112 234.553  1.00  0.00     0.000 A 
ATOM      6  C7  UNK     1      -0.824  36.347 234.240  1.00  0.00     0.058 A 
ATOM      7  N1  UNK     1      -1.751  36.087 235.157  1.00  0.00    -0.351 N 
ATOM      8  H1  UNK     1      -2.554  35.514 234.899  1.00  0.00     0.166 HD
ATOM      9  C8  UNK     1      -1.665  36.547 236.388  1.00  0.00     0.117 A 
ATOM     10  C10 UNK     1      -0.585  37.325 236.762  1.00  0.00     0.045 A 
ATOM     11  C11 UNK     1       0.397  37.617 235.837  1.00  0.00    -0.013 A 
ENDROOT
BRANCH  11  12
ATOM     12  C12 UNK     1       1.479  38.370 236.230  1.00  0.00     0.185 C 
BRANCH  12  13
ATOM     13  O1  UNK     1       0.964  39.681 236.377  1.00  0.00    -0.389 OA
ATOM     14  H6  UNK     1       0.044  39.636 236.609  1.00  0.00     0.210 HD
ENDBRANCH  12  13
BRANCH  12  15
ATOM     15  C13 UNK     1       1.986  37.925 237.585  1.00  0.00     0.253 C 
ATOM     16  C14 UNK     1       2.385  39.178 238.338  1.00  0.00     0.038 C 
ATOM     17  C15 UNK     1       2.899  38.820 239.705  1.00  0.00     0.004 C 
ATOM     18  C16 UNK     1       4.043  37.850 239.560  1.00  0.00     0.030 C 
ATOM     19  C17 UNK     1       3.561  36.622 238.811  1.00  0.00     0.270 C 
ATOM     20  N2  UNK     1       3.111  36.992 237.469  1.00  0.00     0.090 N 
ATOM     21  H16 UNK     1       3.861  37.431 236.974  1.00  0.00     0.316 HD
ENDBRANCH  12  15
ENDBRANCH  11  12
BRANCH   9  22
ATOM     22  C9  UNK     1      -2.689  36.198 237.235  1.00  0.00     0.432 C 
ATOM     23  F4  UNK     1      -2.566  36.779 238.335  1.00  0.00    -0.165 F 
ATOM     24  F5  UNK     1      -3.827  36.505 236.691  1.00  0.00    -0.165 F 
ATOM     25  F6  UNK     1      -2.636  34.991 237.430  1.00  0.00    -0.165 F 
ENDBRANCH   9  22
BRANCH   1  26
ATOM     26  C1  UNK     1      -2.044  35.078 232.659  1.00  0.00     0.419 C 
ATOM     27  F1  UNK     1      -1.924  34.574 231.464  1.00  0.00    -0.166 F 
ATOM     28  F2  UNK     1      -2.239  34.160 233.437  1.00  0.00    -0.166 F 
ATOM     29  F3  UNK     1      -3.003  35.821 232.678  1.00  0.00    -0.166 F 
ENDBRANCH   1  26
TORSDOF 5
ENDMDL
MODEL 8
REMARK VINA RESULT:      -6.5      2.486      3.965
REMARK  5 active torsions:
REMARK  status: ('A' for Active; 'I' for Inactive)
REMARK    1  A    between atoms: C1_2  and  C2_5 
REMARK    2  A    between atoms: C8_13  and  C9_14 
REMARK    3  A    between atoms: C11_19  and  C12_20 
REMARK    4  A    between atoms: C12_20  and  O1_21 
REMARK    5  A    between atoms: C12_20  and  C13_22 
ROOT
ATOM      1  C2  UNK     1      -4.610  39.405 228.582  1.00  0.00     0.075 A 
ATOM      2  C3  UNK     1      -4.296  38.559 229.642  1.00  0.00     0.018 A 
ATOM      3  C4  UNK     1      -3.159  38.722 230.397  1.00  0.00     0.002 A 
ATOM      4  C5  UNK     1      -2.331  39.773 230.085  1.00  0.00     0.014 A 
ATOM      5  C6  UNK     1      -2.628  40.643 229.036  1.00  0.00     0.000 A 
ATOM      6  C7  UNK     1      -3.771  40.462 228.274  1.00  0.00     0.058 A 
ATOM      7  N1  UNK     1      -4.062  41.293 227.276  1.00  0.00    -0.351 N 
ATOM      8  H1  UNK     1      -4.915  41.140 226.739  1.00  0.00     0.166 HD
ATOM      9  C8  UNK     1      -3.283  42.306 226.961  1.00  0.00     0.117 A 
ATOM     10  C10 UNK     1      -2.121  42.535 227.675  1.00  0.00     0.045 A 
ATOM     11  C11 UNK     1      -1.786  41.693 228.717  1.00  0.00    -0.013 A 
ENDROOT
BRANCH  11  12
ATOM     12  C12 UNK     1      -0.641  41.948 229.437  1.00  0.00     0.185 C 
BRANCH  12  13
ATOM     13  O1  UNK     1       0.211  40.854 229.146  1.00  0.00    -0.389 OA
ATOM     14  H6  UNK     1       0.911  40.818 229.788  1.00  0.00     0.210 HD
ENDBRANCH  12  13
BRANCH  12  15
ATOM     15  C13 UNK     1       0.045  43.203 228.939  1.00  0.00     0.253 C 
ATOM     16  C14 UNK     1       1.439  42.800 228.506  1.00  0.00     0.038 C 
ATOM     17  C15 UNK     1       2.188  43.998 227.992  1.00  0.00     0.004 C 
ATOM     18  C16 UNK     1       2.205  45.061 229.060  1.00  0.00     0.030 C 
ATOM     19  C17 UNK     1       0.777  45.418 229.427  1.00  0.00     0.270 C 
ATOM     20  N2  UNK     1       0.087  44.247 229.968  1.00  0.00     0.090 N 
ATOM     21  H16 UNK     1       0.579  43.908 230.770  1.00  0.00     0.316 HD
ENDBRANCH  12  15
ENDBRANCH  11  12
BRANCH   9  22
ATOM     22  C9  UNK     1      -3.705  43.088 225.912  1.00  0.00     0.432 C 
ATOM     23  F4  UNK     1      -3.774  44.287 226.259  1.00  0.00    -0.165 F 
ATOM     24  F5  UNK     1      -2.886  42.955 224.914  1.00  0.00    -0.165 F 
ATOM     25  F6  UNK     1      -4.824  42.718 225.581  1.00  0.00    -0.165 F 
ENDBRANCH   9  22
BRANCH   1  26
ATOM     26  C1  UNK     1      -5.751  39.246 227.828  1.00  0.00     0.419 C 
ATOM     27  F1  UNK     1      -6.432  40.357 227.818  1.00  0.00    -0.166 F 
ATOM     28  F2  UNK     1      -5.551  38.916 226.673  1.00  0.00    -0.166 F 
ATOM     29  F3  UNK     1      -6.411  38.387 228.375  1.00  0.00    -0.166 F 
ENDBRANCH   1  26
TORSDOF 5
ENDMDL
MODEL 9
REMARK VINA RESULT:      -6.5     10.148     12.655
REMARK  5 active torsions:
REMARK  status: ('A' for Active; 'I' for Inactive)
REMARK    1  A    between atoms: C1_2  and  C2_5 
REMARK    2  A    between atoms: C8_13  and  C9_14 
REMARK    3  A    between atoms: C11_19  and  C12_20 
REMARK    4  A    between atoms: C12_20  and  O1_21 
REMARK    5  A    between atoms: C12_20  and  C13_22 
ROOT
ATOM      1  C2  UNK     1       1.625  38.700 238.299  1.00  0.00     0.075 A 
ATOM      2  C3  UNK     1       2.925  39.143 238.531  1.00  0.00     0.018 A 
ATOM      3  C4  UNK     1       3.893  38.324 239.064  1.00  0.00     0.002 A 
ATOM      4  C5  UNK     1       3.544  37.027 239.351  1.00  0.00     0.014 A 
ATOM      5  C6  UNK     1       2.254  36.554 239.117  1.00  0.00     0.000 A 
ATOM      6  C7  UNK     1       1.282  37.391 238.590  1.00  0.00     0.058 A 
ATOM      7  N1  UNK     1       0.051  36.943 238.359  1.00  0.00    -0.351 N 
ATOM      8  H1  UNK     1      -0.640  37.580 237.962  1.00  0.00     0.166 HD
ATOM      9  C8  UNK     1      -0.304  35.703 238.626  1.00  0.00     0.117 A 
ATOM     10  C10 UNK     1       0.615  34.821 239.163  1.00  0.00     0.045 A 
ATOM     11  C11 UNK     1       1.902  35.250 239.418  1.00  0.00    -0.013 A 
ENDROOT
BRANCH  11  12
ATOM     12  C12 UNK     1       2.814  34.354 239.927  1.00  0.00     0.185 C 
BRANCH  12  13
ATOM     13  O1  UNK     1       2.286  33.992 241.192  1.00  0.00    -0.389 OA
ATOM     14  H6  UNK     1       2.250  34.760 241.751  1.00  0.00     0.210 HD
ENDBRANCH  12  13
BRANCH  12  15
ATOM     15  C13 UNK     1       2.872  33.099 239.083  1.00  0.00     0.253 C 
ATOM     16  C14 UNK     1       3.673  32.079 239.865  1.00  0.00     0.038 C 
ATOM     17  C15 UNK     1       3.773  30.794 239.090  1.00  0.00     0.004 C 
ATOM     18  C16 UNK     1       4.375  31.082 237.739  1.00  0.00     0.030 C 
ATOM     19  C17 UNK     1       3.511  32.098 237.016  1.00  0.00     0.270 C 
ATOM     20  N2  UNK     1       3.469  33.352 237.768  1.00  0.00     0.090 N 
ATOM     21  H16 UNK     1       4.398  33.705 237.884  1.00  0.00     0.316 HD
ENDBRANCH  12  15
ENDBRANCH  11  12
BRANCH   9  22
ATOM     22  C9  UNK     1      -1.605  35.373 238.334  1.00  0.00     0.432 C 
ATOM     23  F4  UNK     1      -1.659  34.681 237.293  1.00  0.00    -0.165 F 
ATOM     24  F5  UNK     1      -2.124  34.724 239.331  1.00  0.00    -0.165 F 
ATOM     25  F6  UNK     1      -2.233  36.406 238.141  1.00  0.00    -0.165 F 
ENDBRANCH   9  22
BRANCH   1  26
ATOM     26  C1  UNK     1       0.656  39.516 237.760  1.00  0.00     0.419 C 
ATOM     27  F1  UNK     1      -0.054  38.849 236.897  1.00  0.00    -0.166 F 
ATOM     28  F2  UNK     1      -0.104  40.004 238.578  1.00  0.00    -0.166 F 
ATOM     29  F3  UNK     1       1.239  40.410 237.182  1.00  0.00    -0.166 F 
ENDBRANCH   1  26
TORSDOF 5
ENDMDL
