REMARK  5 active torsions:
REMARK  status: ('A' for Active; 'I' for Inactive)
REMARK    1  A    between atoms: O1_2  and  C5_11 
REMARK    2  A    between atoms: O2_3  and  C9_15 
REMARK    3  A    between atoms: O4_5  and  C20_26 
REMARK    4  A    between atoms: C5_11  and  C15_21 
REMARK    5  A    between atoms: C15_21  and  C20_26 
ROOT
ATOM      1  F1  UNK     1    -161.722  62.175 147.644  1.00  0.00    -0.238 F 
ATOM      2  O5  UNK     1    -161.901  57.435 146.508  1.00  0.00    -0.289 OA
ATOM      3  C1  UNK     1    -162.815  65.505 147.882  1.00  0.00     0.001 C 
ATOM      4  C2  UNK     1    -163.111  64.332 148.843  1.00  0.00     0.005 C 
ATOM      5  C3  UNK     1    -163.806  63.145 148.159  1.00  0.00     0.035 C 
ATOM      6  C4  UNK     1    -162.883  62.599 147.016  1.00  0.00     0.147 C 
ATOM      7  C5  UNK     1    -162.199  66.529 148.886  1.00  0.00     0.131 C 
ATOM      8  C6  UNK     1    -163.805  65.016 150.016  1.00  0.00     0.013 C 
ATOM      9  C7  UNK     1    -161.865  64.974 146.788  1.00  0.00     0.048 C 
ATOM     10  C8  UNK     1    -162.980  66.313 150.221  1.00  0.00     0.025 C 
ATOM     11  C9  UNK     1    -162.413  63.730 146.053  1.00  0.00     0.160 C 
ATOM     12  C10 UNK     1    -163.487  61.311 146.330  1.00  0.00     0.036 A 
ATOM     13  C11 UNK     1    -164.125  62.046 149.190  1.00  0.00     0.013 C 
ATOM     14  C12 UNK     1    -164.094  66.108 147.238  1.00  0.00     0.019 C 
ATOM     15  C13 UNK     1    -164.709  60.797 148.542  1.00  0.00     0.036 C 
ATOM     16  C14 UNK     1    -163.803  60.304 147.442  1.00  0.00    -0.061 A 
ATOM     17  C16 UNK     1    -163.878  67.457 150.684  1.00  0.00     0.013 C 
ATOM     18  C17 UNK     1    -164.790  61.570 145.538  1.00  0.00     0.028 C 
ATOM     19  C18 UNK     1    -162.494  60.733 145.332  1.00  0.00    -0.006 A 
ATOM     20  C19 UNK     1    -163.290  59.064 147.495  1.00  0.00     0.058 A 
ATOM     21  C21 UNK     1    -161.979  59.501 145.379  1.00  0.00     0.052 A 
ATOM     22  C22 UNK     1    -162.355  58.574 146.462  1.00  0.00     0.172 A 
ENDROOT
BRANCH   7  23
ATOM     23  O1  UNK     1    -160.821  66.212 149.122  1.00  0.00    -0.381 OA
ATOM     24  H22 UNK     1    -160.316  66.367 148.306  1.00  0.00     0.211 HD
ENDBRANCH   7  23
BRANCH   7  25
ATOM     25  C15 UNK     1    -162.108  67.935 148.368  1.00  0.00     0.185 C 
ATOM     26  O3  UNK     1    -162.559  68.241 147.266  1.00  0.00    -0.292 OA
BRANCH  25  27
ATOM     27  C20 UNK     1    -161.434  68.941 149.277  1.00  0.00     0.245 C 
BRANCH  27  28
ATOM     28  O4  UNK     1    -161.978  70.230 149.084  1.00  0.00    -0.393 OA
ATOM     29  H29 UNK     1    -162.897  70.208 149.399  1.00  0.00     0.209 HD
ENDBRANCH  27  28
ENDBRANCH  25  27
ENDBRANCH   7  25
BRANCH  11  30
ATOM     30  O2  UNK     1    -163.444  64.117 145.158  1.00  0.00    -0.392 OA
ATOM     31  H24 UNK     1    -163.236  63.740 144.286  1.00  0.00     0.210 HD
ENDBRANCH  11  30
TORSDOF 5
