MODEL 1
REMARK VINA RESULT:      -8.4      0.000      0.000
REMARK  7 active torsions:
REMARK  status: ('A' for Active; 'I' for Inactive)
REMARK    1  A    between atoms: N1_4  and  C6_12 
REMARK    2  A    between atoms: N2_5  and  C1_7 
REMARK    3  A    between atoms: C6_12  and  C7_13 
REMARK    4  A    between atoms: C7_13  and  C9_15 
REMARK    5  A    between atoms: C9_15  and  C11_17 
REMARK    6  A    between atoms: C11_17  and  C14_20 
REMARK    7  A    between atoms: C11_17  and  C15_21 
ROOT
ATOM      1  C6  UNK     1      -1.839  36.006 229.958  1.00  0.00     0.272 C 
ENDROOT
BRANCH   1   2
ATOM      2  N1  UNK     1      -1.258  35.538 231.217  1.00  0.00     0.088 N 
ATOM      3  C4  UNK     1       0.195  35.373 231.082  1.00  0.00     0.274 C 
ATOM      4  C2  UNK     1       0.812  34.834 232.374  1.00  0.00     0.056 C 
ATOM      5  C1  UNK     1       0.476  35.731 233.565  1.00  0.00     0.098 C 
ATOM      6  C3  UNK     1      -1.034  35.962 233.644  1.00  0.00     0.056 C 
ATOM      7  C5  UNK     1      -1.589  36.464 232.310  1.00  0.00     0.274 C 
BRANCH   5   8
ATOM      8  N2  UNK     1       0.979  35.166 234.792  1.00  0.00    -0.293 N 
ATOM      9  C8  UNK     1       1.667  35.870 235.788  1.00  0.00     0.066 A 
ATOM     10  C12 UNK     1       1.980  34.970 236.806  1.00  0.00     0.063 A 
ATOM     11  C13 UNK     1       2.027  37.200 235.865  1.00  0.00     0.032 A 
ATOM     12  N3  UNK     1       1.495  33.711 236.452  1.00  0.00    -0.306 N 
ATOM     13  C16 UNK     1       2.663  35.348 237.941  1.00  0.00     0.032 A 
ATOM     14  C10 UNK     1       0.856  33.805 235.183  1.00  0.00     0.328 A 
ATOM     15  H17 UNK     1       1.588  32.876 237.016  1.00  0.00     0.171 HD
ATOM     16  O1  UNK     1       0.318  32.892 234.571  1.00  0.00    -0.247 OA
ATOM     17  C18 UNK     1       3.035  36.692 238.036  1.00  0.00     0.002 A 
ATOM     18  C17 UNK     1       2.721  37.607 237.009  1.00  0.00     0.002 A 
ENDBRANCH   5   8
ENDBRANCH   1   2
BRANCH   1  19
ATOM     19  C7  UNK     1      -1.777  37.531 229.879  1.00  0.00     0.031 C 
BRANCH  19  20
ATOM     20  C9  UNK     1      -1.268  37.993 228.506  1.00  0.00     0.016 C 
BRANCH  20  21
ATOM     21  C11 UNK     1      -1.432  39.520 228.290  1.00  0.00     0.051 C 
BRANCH  21  22
ATOM     22  C14 UNK     1      -0.109  40.268 228.185  1.00  0.00    -0.049 A 
ATOM     23  C19 UNK     1       0.056  41.431 228.908  1.00  0.00     0.011 A 
ATOM     24  C23 UNK     1       1.267  42.116 228.811  1.00  0.00     0.043 A 
ATOM     25  C27 UNK     1       2.284  41.624 227.994  1.00  0.00     0.116 A 
ATOM     26  F1  UNK     1       3.447  42.282 227.901  1.00  0.00    -0.206 F 
ATOM     27  C25 UNK     1       2.091  40.445 227.273  1.00  0.00     0.043 A 
ATOM     28  C21 UNK     1       0.880  39.759 227.370  1.00  0.00     0.011 A 
ENDBRANCH  21  22
BRANCH  21  29
ATOM     29  C15 UNK     1      -2.355  39.864 227.124  1.00  0.00    -0.049 A 
ATOM     30  C20 UNK     1      -3.346  38.971 226.778  1.00  0.00     0.011 A 
ATOM     31  C24 UNK     1      -4.190  39.285 225.714  1.00  0.00     0.043 A 
ATOM     32  C28 UNK     1      -4.021  40.483 225.020  1.00  0.00     0.116 A 
ATOM     33  F2  UNK     1      -4.831  40.784 223.996  1.00  0.00    -0.206 F 
ATOM     34  C26 UNK     1      -3.010  41.368 225.392  1.00  0.00     0.043 A 
ATOM     35  C22 UNK     1      -2.165  41.054 226.457  1.00  0.00     0.011 A 
ENDBRANCH  21  29
ENDBRANCH  20  21
ENDBRANCH  19  20
ENDBRANCH   1  19
TORSDOF 7
ENDMDL
MODEL 2
REMARK VINA RESULT:      -8.4      1.449      2.513
REMARK  7 active torsions:
REMARK  status: ('A' for Active; 'I' for Inactive)
REMARK    1  A    between atoms: N1_4  and  C6_12 
REMARK    2  A    between atoms: N2_5  and  C1_7 
REMARK    3  A    between atoms: C6_12  and  C7_13 
REMARK    4  A    between atoms: C7_13  and  C9_15 
REMARK    5  A    between atoms: C9_15  and  C11_17 
REMARK    6  A    between atoms: C11_17  and  C14_20 
REMARK    7  A    between atoms: C11_17  and  C15_21 
ROOT
ATOM      1  C6  UNK     1      -1.796  36.166 230.009  1.00  0.00     0.272 C 
ENDROOT
BRANCH   1   2
ATOM      2  N1  UNK     1      -0.803  36.103 231.083  1.00  0.00     0.088 N 
ATOM      3  C4  UNK     1      -1.463  35.904 232.381  1.00  0.00     0.274 C 
ATOM      4  C2  UNK     1      -0.444  35.889 233.521  1.00  0.00     0.056 C 
ATOM      5  C1  UNK     1       0.631  34.827 233.290  1.00  0.00     0.098 C 
ATOM      6  C3  UNK     1       1.251  34.995 231.903  1.00  0.00     0.056 C 
ATOM      7  C5  UNK     1       0.175  35.040 230.816  1.00  0.00     0.274 C 
BRANCH   5   8
ATOM      8  N2  UNK     1       1.639  34.884 234.319  1.00  0.00    -0.293 N 
ATOM      9  C8  UNK     1       2.234  33.776 234.936  1.00  0.00     0.066 A 
ATOM     10  C12 UNK     1       3.153  34.251 235.870  1.00  0.00     0.063 A 
ATOM     11  C13 UNK     1       2.035  32.424 234.742  1.00  0.00     0.032 A 
ATOM     12  N3  UNK     1       3.135  35.646 235.843  1.00  0.00    -0.306 N 
ATOM     13  C16 UNK     1       3.912  33.410 236.653  1.00  0.00     0.032 A 
ATOM     14  C10 UNK     1       2.186  36.075 234.871  1.00  0.00     0.328 A 
ATOM     15  H17 UNK     1       3.708  36.244 236.424  1.00  0.00     0.171 HD
ATOM     16  O1  UNK     1       1.913  37.232 234.583  1.00  0.00    -0.247 OA
ATOM     17  C18 UNK     1       3.724  32.037 236.470  1.00  0.00     0.002 A 
ATOM     18  C17 UNK     1       2.796  31.550 235.526  1.00  0.00     0.002 A 
ENDBRANCH   5   8
ENDBRANCH   1   2
BRANCH   1  19
ATOM     19  C7  UNK     1      -2.070  37.619 229.625  1.00  0.00     0.031 C 
BRANCH  19  20
ATOM     20  C9  UNK     1      -1.180  38.059 228.454  1.00  0.00     0.016 C 
BRANCH  20  21
ATOM     21  C11 UNK     1      -1.295  39.576 228.152  1.00  0.00     0.051 C 
BRANCH  21  22
ATOM     22  C14 UNK     1       0.040  40.308 228.174  1.00  0.00    -0.049 A 
ATOM     23  C19 UNK     1       1.108  39.765 227.489  1.00  0.00     0.011 A 
ATOM     24  C23 UNK     1       2.330  40.435 227.509  1.00  0.00     0.043 A 
ATOM     25  C27 UNK     1       2.459  41.632 228.214  1.00  0.00     0.116 A 
ATOM     26  F1  UNK     1       3.633  42.275 228.234  1.00  0.00    -0.206 F 
ATOM     27  C25 UNK     1       1.363  42.160 228.899  1.00  0.00     0.043 A 
ATOM     28  C21 UNK     1       0.140  41.489 228.878  1.00  0.00     0.011 A 
ENDBRANCH  21  22
BRANCH  21  29
ATOM     29  C15 UNK     1      -2.066  39.873 226.869  1.00  0.00    -0.049 A 
ATOM     30  C20 UNK     1      -1.528  40.760 225.962  1.00  0.00     0.011 A 
ATOM     31  C24 UNK     1      -2.232  41.031 224.790  1.00  0.00     0.043 A 
ATOM     32  C28 UNK     1      -3.457  40.409 224.552  1.00  0.00     0.116 A 
ATOM     33  F2  UNK     1      -4.135  40.670 223.426  1.00  0.00    -0.206 F 
ATOM     34  C26 UNK     1      -3.978  39.515 225.487  1.00  0.00     0.043 A 
ATOM     35  C22 UNK     1      -3.274  39.244 226.661  1.00  0.00     0.011 A 
ENDBRANCH  21  29
ENDBRANCH  20  21
ENDBRANCH  19  20
ENDBRANCH   1  19
TORSDOF 7
ENDMDL
MODEL 3
REMARK VINA RESULT:      -8.3      4.472      7.594
REMARK  7 active torsions:
REMARK  status: ('A' for Active; 'I' for Inactive)
REMARK    1  A    between atoms: N1_4  and  C6_12 
REMARK    2  A    between atoms: N2_5  and  C1_7 
REMARK    3  A    between atoms: C6_12  and  C7_13 
REMARK    4  A    between atoms: C7_13  and  C9_15 
REMARK    5  A    between atoms: C9_15  and  C11_17 
REMARK    6  A    between atoms: C11_17  and  C14_20 
REMARK    7  A    between atoms: C11_17  and  C15_21 
ROOT
ATOM      1  C6  UNK     1       1.534  30.742 234.216  1.00  0.00     0.272 C 
ENDROOT
BRANCH   1   2
ATOM      2  N1  UNK     1       2.126  31.570 235.267  1.00  0.00     0.088 N 
ATOM      3  C4  UNK     1       1.325  31.490 236.496  1.00  0.00     0.274 C 
ATOM      4  C2  UNK     1       1.902  32.391 237.590  1.00  0.00     0.056 C 
ATOM      5  C1  UNK     1       3.366  32.053 237.872  1.00  0.00     0.098 C 
ATOM      6  C3  UNK     1       4.170  32.058 236.572  1.00  0.00     0.056 C 
ATOM      7  C5  UNK     1       3.518  31.168 235.513  1.00  0.00     0.274 C 
BRANCH   5   8
ATOM      8  N2  UNK     1       3.927  32.968 238.834  1.00  0.00    -0.293 N 
ATOM      9  C8  UNK     1       4.108  34.343 238.639  1.00  0.00     0.066 A 
ATOM     10  C12 UNK     1       4.675  34.867 239.799  1.00  0.00     0.063 A 
ATOM     11  C13 UNK     1       3.820  35.143 237.552  1.00  0.00     0.032 A 
ATOM     12  N3  UNK     1       4.851  33.831 240.716  1.00  0.00    -0.306 N 
ATOM     13  C16 UNK     1       4.982  36.203 239.932  1.00  0.00     0.032 A 
ATOM     14  C10 UNK     1       4.386  32.617 240.133  1.00  0.00     0.328 A 
ATOM     15  H17 UNK     1       5.246  33.938 241.642  1.00  0.00     0.171 HD
ATOM     16  O1  UNK     1       4.389  31.512 240.657  1.00  0.00    -0.247 OA
ATOM     17  C18 UNK     1       4.697  37.029 238.841  1.00  0.00     0.002 A 
ATOM     18  C17 UNK     1       4.123  36.504 237.664  1.00  0.00     0.002 A 
ENDBRANCH   5   8
ENDBRANCH   1   2
BRANCH   1  19
ATOM     19  C7  UNK     1       1.313  31.570 232.950  1.00  0.00     0.031 C 
BRANCH  19  20
ATOM     20  C9  UNK     1       0.378  32.757 233.223  1.00  0.00     0.016 C 
BRANCH  20  21
ATOM     21  C11 UNK     1       1.057  34.126 232.956  1.00  0.00     0.051 C 
BRANCH  21  22
ATOM     22  C14 UNK     1       0.603  34.792 231.663  1.00  0.00    -0.049 A 
ATOM     23  C19 UNK     1      -0.643  35.381 231.619  1.00  0.00     0.011 A 
ATOM     24  C23 UNK     1      -1.058  35.990 230.436  1.00  0.00     0.043 A 
ATOM     25  C27 UNK     1      -0.218  35.996 229.322  1.00  0.00     0.116 A 
ATOM     26  F1  UNK     1      -0.616  36.581 228.185  1.00  0.00    -0.206 F 
ATOM     27  C25 UNK     1       1.039  35.393 229.393  1.00  0.00     0.043 A 
ATOM     28  C21 UNK     1       1.454  34.784 230.578  1.00  0.00     0.011 A 
ENDBRANCH  21  22
BRANCH  21  29
ATOM     29  C15 UNK     1       0.951  35.086 234.138  1.00  0.00    -0.049 A 
ATOM     30  C20 UNK     1       1.707  36.238 234.125  1.00  0.00     0.011 A 
ATOM     31  C24 UNK     1       1.610  37.115 235.204  1.00  0.00     0.043 A 
ATOM     32  C28 UNK     1       0.761  36.820 236.270  1.00  0.00     0.116 A 
ATOM     33  F2  UNK     1       0.669  37.662 237.308  1.00  0.00    -0.206 F 
ATOM     34  C26 UNK     1       0.007  35.646 236.256  1.00  0.00     0.043 A 
ATOM     35  C22 UNK     1       0.104  34.768 235.176  1.00  0.00     0.011 A 
ENDBRANCH  21  29
ENDBRANCH  20  21
ENDBRANCH  19  20
ENDBRANCH   1  19
TORSDOF 7
ENDMDL
MODEL 4
REMARK VINA RESULT:      -8.2      4.072     10.411
REMARK  7 active torsions:
REMARK  status: ('A' for Active; 'I' for Inactive)
REMARK    1  A    between atoms: N1_4  and  C6_12 
REMARK    2  A    between atoms: N2_5  and  C1_7 
REMARK    3  A    between atoms: C6_12  and  C7_13 
REMARK    4  A    between atoms: C7_13  and  C9_15 
REMARK    5  A    between atoms: C9_15  and  C11_17 
REMARK    6  A    between atoms: C11_17  and  C14_20 
REMARK    7  A    between atoms: C11_17  and  C15_21 
ROOT
ATOM      1  C6  UNK     1       0.165  33.812 231.369  1.00  0.00     0.272 C 
ENDROOT
BRANCH   1   2
ATOM      2  N1  UNK     1      -0.548  34.746 230.495  1.00  0.00     0.088 N 
ATOM      3  C4  UNK     1      -1.047  35.892 231.266  1.00  0.00     0.274 C 
ATOM      4  C2  UNK     1      -1.841  36.852 230.378  1.00  0.00     0.056 C 
ATOM      5  C1  UNK     1      -1.007  37.321 229.185  1.00  0.00     0.098 C 
ATOM      6  C3  UNK     1      -0.425  36.118 228.441  1.00  0.00     0.056 C 
ATOM      7  C5  UNK     1       0.321  35.184 229.394  1.00  0.00     0.274 C 
BRANCH   5   8
ATOM      8  N2  UNK     1      -1.792  38.147 228.303  1.00  0.00    -0.293 N 
ATOM      9  C8  UNK     1      -1.390  39.380 227.773  1.00  0.00     0.066 A 
ATOM     10  C12 UNK     1      -2.426  39.857 226.972  1.00  0.00     0.063 A 
ATOM     11  C13 UNK     1      -0.219  40.091 227.937  1.00  0.00     0.032 A 
ATOM     12  N3  UNK     1      -3.471  38.933 226.998  1.00  0.00    -0.306 N 
ATOM     13  C16 UNK     1      -2.348  41.057 226.301  1.00  0.00     0.032 A 
ATOM     14  C10 UNK     1      -3.098  37.841 227.832  1.00  0.00     0.328 A 
ATOM     15  H17 UNK     1      -4.346  39.035 226.500  1.00  0.00     0.171 HD
ATOM     16  O1  UNK     1      -3.774  36.852 228.080  1.00  0.00    -0.247 OA
ATOM     17  C18 UNK     1      -1.168  41.791 226.455  1.00  0.00     0.002 A 
ATOM     18  C17 UNK     1      -0.116  41.314 227.265  1.00  0.00     0.002 A 
ENDBRANCH   5   8
ENDBRANCH   1   2
BRANCH   1  19
ATOM     19  C7  UNK     1       1.113  34.573 232.295  1.00  0.00     0.031 C 
BRANCH  19  20
ATOM     20  C9  UNK     1       1.181  33.911 233.679  1.00  0.00     0.016 C 
BRANCH  20  21
ATOM     21  C11 UNK     1       2.058  34.708 234.680  1.00  0.00     0.051 C 
BRANCH  21  22
ATOM     22  C14 UNK     1       1.286  35.757 235.470  1.00  0.00    -0.049 A 
ATOM     23  C19 UNK     1       0.009  35.461 235.899  1.00  0.00     0.011 A 
ATOM     24  C23 UNK     1      -0.697  36.422 236.621  1.00  0.00     0.043 A 
ATOM     25  C27 UNK     1      -0.112  37.657 236.898  1.00  0.00     0.116 A 
ATOM     26  F1  UNK     1      -0.790  38.581 237.591  1.00  0.00    -0.206 F 
ATOM     27  C25 UNK     1       1.182  37.932 236.452  1.00  0.00     0.043 A 
ATOM     28  C21 UNK     1       1.889  36.970 235.730  1.00  0.00     0.011 A 
ENDBRANCH  21  22
BRANCH  21  29
ATOM     29  C15 UNK     1       2.874  33.810 235.606  1.00  0.00    -0.049 A 
ATOM     30  C20 UNK     1       3.102  32.504 235.231  1.00  0.00     0.011 A 
ATOM     31  C24 UNK     1       3.848  31.684 236.076  1.00  0.00     0.043 A 
ATOM     32  C28 UNK     1       4.347  32.189 237.277  1.00  0.00     0.116 A 
ATOM     33  F2  UNK     1       5.062  31.400 238.089  1.00  0.00    -0.206 F 
ATOM     34  C26 UNK     1       4.101  33.515 237.631  1.00  0.00     0.043 A 
ATOM     35  C22 UNK     1       3.354  34.336 236.785  1.00  0.00     0.011 A 
ENDBRANCH  21  29
ENDBRANCH  20  21
ENDBRANCH  19  20
ENDBRANCH   1  19
TORSDOF 7
ENDMDL
MODEL 5
REMARK VINA RESULT:      -8.2      2.386      3.863
REMARK  7 active torsions:
REMARK  status: ('A' for Active; 'I' for Inactive)
REMARK    1  A    between atoms: N1_4  and  C6_12 
REMARK    2  A    between atoms: N2_5  and  C1_7 
REMARK    3  A    between atoms: C6_12  and  C7_13 
REMARK    4  A    between atoms: C7_13  and  C9_15 
REMARK    5  A    between atoms: C9_15  and  C11_17 
REMARK    6  A    between atoms: C11_17  and  C14_20 
REMARK    7  A    between atoms: C11_17  and  C15_21 
ROOT
ATOM      1  C6  UNK     1      -2.045  36.289 232.297  1.00  0.00     0.272 C 
ENDROOT
BRANCH   1   2
ATOM      2  N1  UNK     1      -1.263  35.806 233.436  1.00  0.00     0.088 N 
ATOM      3  C4  UNK     1       0.174  35.870 233.137  1.00  0.00     0.274 C 
ATOM      4  C2  UNK     1       1.004  35.320 234.298  1.00  0.00     0.056 C 
ATOM      5  C1  UNK     1       0.688  36.053 235.602  1.00  0.00     0.098 C 
ATOM      6  C3  UNK     1      -0.820  36.051 235.858  1.00  0.00     0.056 C 
ATOM      7  C5  UNK     1      -1.589  36.577 234.645  1.00  0.00     0.274 C 
BRANCH   5   8
ATOM      8  N2  UNK     1       1.403  35.466 236.707  1.00  0.00    -0.293 N 
ATOM      9  C8  UNK     1       2.502  36.039 237.360  1.00  0.00     0.066 A 
ATOM     10  C12 UNK     1       2.902  35.164 238.368  1.00  0.00     0.063 A 
ATOM     11  C13 UNK     1       3.155  37.235 237.142  1.00  0.00     0.032 A 
ATOM     12  N3  UNK     1       2.063  34.049 238.350  1.00  0.00    -0.306 N 
ATOM     13  C16 UNK     1       3.965  35.433 239.201  1.00  0.00     0.032 A 
ATOM     14  C10 UNK     1       1.105  34.213 237.309  1.00  0.00     0.328 A 
ATOM     15  H17 UNK     1       2.135  33.260 238.978  1.00  0.00     0.171 HD
ATOM     16  O1  UNK     1       0.216  33.427 237.010  1.00  0.00    -0.247 OA
ATOM     17  C18 UNK     1       4.639  36.640 238.994  1.00  0.00     0.002 A 
ATOM     18  C17 UNK     1       4.239  37.530 237.976  1.00  0.00     0.002 A 
ENDBRANCH   5   8
ENDBRANCH   1   2
BRANCH   1  19
ATOM     19  C7  UNK     1      -2.652  35.112 231.534  1.00  0.00     0.031 C 
BRANCH  19  20
ATOM     20  C9  UNK     1      -2.675  35.386 230.023  1.00  0.00     0.016 C 
BRANCH  20  21
ATOM     21  C11 UNK     1      -1.497  36.282 229.560  1.00  0.00     0.051 C 
BRANCH  21  22
ATOM     22  C14 UNK     1      -0.365  35.510 228.896  1.00  0.00    -0.049 A 
ATOM     23  C19 UNK     1      -0.617  34.842 227.716  1.00  0.00     0.011 A 
ATOM     24  C23 UNK     1       0.420  34.134 227.110  1.00  0.00     0.043 A 
ATOM     25  C27 UNK     1       1.686  34.110 227.696  1.00  0.00     0.116 A 
ATOM     26  F1  UNK     1       2.682  33.430 227.113  1.00  0.00    -0.206 F 
ATOM     27  C25 UNK     1       1.914  34.795 228.890  1.00  0.00     0.043 A 
ATOM     28  C21 UNK     1       0.876  35.503 229.497  1.00  0.00     0.011 A 
ENDBRANCH  21  22
BRANCH  21  29
ATOM     29  C15 UNK     1      -1.945  37.457 228.695  1.00  0.00    -0.049 A 
ATOM     30  C20 UNK     1      -1.100  38.537 228.556  1.00  0.00     0.011 A 
ATOM     31  C24 UNK     1      -1.508  39.610 227.765  1.00  0.00     0.043 A 
ATOM     32  C28 UNK     1      -2.751  39.579 227.134  1.00  0.00     0.116 A 
ATOM     33  F2  UNK     1      -3.144  40.611 226.375  1.00  0.00    -0.206 F 
ATOM     34  C26 UNK     1      -3.586  38.473 227.292  1.00  0.00     0.043 A 
ATOM     35  C22 UNK     1      -3.178  37.398 228.084  1.00  0.00     0.011 A 
ENDBRANCH  21  29
ENDBRANCH  20  21
ENDBRANCH  19  20
ENDBRANCH   1  19
TORSDOF 7
ENDMDL
MODEL 6
REMARK VINA RESULT:      -8.2      4.833      6.574
REMARK  7 active torsions:
REMARK  status: ('A' for Active; 'I' for Inactive)
REMARK    1  A    between atoms: N1_4  and  C6_12 
REMARK    2  A    between atoms: N2_5  and  C1_7 
REMARK    3  A    between atoms: C6_12  and  C7_13 
REMARK    4  A    between atoms: C7_13  and  C9_15 
REMARK    5  A    between atoms: C9_15  and  C11_17 
REMARK    6  A    between atoms: C11_17  and  C14_20 
REMARK    7  A    between atoms: C11_17  and  C15_21 
ROOT
ATOM      1  C6  UNK     1       0.337  30.525 233.627  1.00  0.00     0.272 C 
ENDROOT
BRANCH   1   2
ATOM      2  N1  UNK     1       0.981  31.141 234.789  1.00  0.00     0.088 N 
ATOM      3  C4  UNK     1       2.332  31.602 234.442  1.00  0.00     0.274 C 
ATOM      4  C2  UNK     1       3.039  32.202 235.659  1.00  0.00     0.056 C 
ATOM      5  C1  UNK     1       2.218  33.335 236.275  1.00  0.00     0.098 C 
ATOM      6  C3  UNK     1       0.791  32.864 236.553  1.00  0.00     0.056 C 
ATOM      7  C5  UNK     1       0.158  32.243 235.306  1.00  0.00     0.274 C 
BRANCH   5   8
ATOM      8  N2  UNK     1       2.845  33.829 237.475  1.00  0.00    -0.293 N 
ATOM      9  C8  UNK     1       3.249  35.152 237.696  1.00  0.00     0.066 A 
ATOM     10  C12 UNK     1       3.807  35.220 238.971  1.00  0.00     0.063 A 
ATOM     11  C13 UNK     1       3.165  36.265 236.885  1.00  0.00     0.032 A 
ATOM     12  N3  UNK     1       3.755  33.951 239.548  1.00  0.00    -0.306 N 
ATOM     13  C16 UNK     1       4.306  36.391 239.497  1.00  0.00     0.032 A 
ATOM     14  C10 UNK     1       3.152  33.050 238.625  1.00  0.00     0.328 A 
ATOM     15  H17 UNK     1       4.095  33.722 240.474  1.00  0.00     0.171 HD
ATOM     16  O1  UNK     1       2.947  31.858 238.802  1.00  0.00    -0.247 OA
ATOM     17  C18 UNK     1       4.230  37.529 238.689  1.00  0.00     0.002 A 
ATOM     18  C17 UNK     1       3.666  37.466 237.397  1.00  0.00     0.002 A 
ENDBRANCH   5   8
ENDBRANCH   1   2
BRANCH   1  19
ATOM     19  C7  UNK     1       1.078  30.907 232.346  1.00  0.00     0.031 C 
BRANCH  19  20
ATOM     20  C9  UNK     1       0.262  31.909 231.515  1.00  0.00     0.016 C 
BRANCH  20  21
ATOM     21  C11 UNK     1       0.939  33.302 231.426  1.00  0.00     0.051 C 
BRANCH  21  22
ATOM     22  C14 UNK     1       1.069  33.829 230.003  1.00  0.00    -0.049 A 
ATOM     23  C19 UNK     1       0.644  33.035 228.958  1.00  0.00     0.011 A 
ATOM     24  C23 UNK     1       0.764  33.517 227.655  1.00  0.00     0.043 A 
ATOM     25  C27 UNK     1       1.305  34.782 227.426  1.00  0.00     0.116 A 
ATOM     26  F1  UNK     1       1.421  35.245 226.175  1.00  0.00    -0.206 F 
ATOM     27  C25 UNK     1       1.728  35.566 228.501  1.00  0.00     0.043 A 
ATOM     28  C21 UNK     1       1.607  35.083 229.805  1.00  0.00     0.011 A 
ENDBRANCH  21  22
BRANCH  21  29
ATOM     29  C15 UNK     1       0.294  34.339 232.342  1.00  0.00    -0.049 A 
ATOM     30  C20 UNK     1      -1.074  34.497 232.304  1.00  0.00     0.011 A 
ATOM     31  C24 UNK     1      -1.662  35.444 233.141  1.00  0.00     0.043 A 
ATOM     32  C28 UNK     1      -0.869  36.210 233.995  1.00  0.00     0.116 A 
ATOM     33  F2  UNK     1      -1.435  37.120 234.798  1.00  0.00    -0.206 F 
ATOM     34  C26 UNK     1       0.513  36.028 234.012  1.00  0.00     0.043 A 
ATOM     35  C22 UNK     1       1.103  35.080 233.174  1.00  0.00     0.011 A 
ENDBRANCH  21  29
ENDBRANCH  20  21
ENDBRANCH  19  20
ENDBRANCH   1  19
TORSDOF 7
ENDMDL
MODEL 7
REMARK VINA RESULT:      -8.1      4.171     10.521
REMARK  7 active torsions:
REMARK  status: ('A' for Active; 'I' for Inactive)
REMARK    1  A    between atoms: N1_4  and  C6_12 
REMARK    2  A    between atoms: N2_5  and  C1_7 
REMARK    3  A    between atoms: C6_12  and  C7_13 
REMARK    4  A    between atoms: C7_13  and  C9_15 
REMARK    5  A    between atoms: C9_15  and  C11_17 
REMARK    6  A    between atoms: C11_17  and  C14_20 
REMARK    7  A    between atoms: C11_17  and  C15_21 
ROOT
ATOM      1  C6  UNK     1      -0.030  34.132 231.986  1.00  0.00     0.272 C 
ENDROOT
BRANCH   1   2
ATOM      2  N1  UNK     1      -0.738  34.928 230.982  1.00  0.00     0.088 N 
ATOM      3  C4  UNK     1      -1.388  36.086 231.611  1.00  0.00     0.274 C 
ATOM      4  C2  UNK     1      -2.177  36.901 230.585  1.00  0.00     0.056 C 
ATOM      5  C1  UNK     1      -1.287  37.341 229.423  1.00  0.00     0.098 C 
ATOM      6  C3  UNK     1      -0.553  36.136 228.832  1.00  0.00     0.056 C 
ATOM      7  C5  UNK     1       0.182  35.348 229.917  1.00  0.00     0.274 C 
BRANCH   5   8
ATOM      8  N2  UNK     1      -2.058  38.024 228.415  1.00  0.00    -0.293 N 
ATOM      9  C8  UNK     1      -1.732  39.260 227.842  1.00  0.00     0.066 A 
ATOM     10  C12 UNK     1      -2.724  39.574 226.915  1.00  0.00     0.063 A 
ATOM     11  C13 UNK     1      -0.662  40.103 228.067  1.00  0.00     0.032 A 
ATOM     12  N3  UNK     1      -3.666  38.546 226.905  1.00  0.00    -0.306 N 
ATOM     13  C16 UNK     1      -2.701  40.735 226.173  1.00  0.00     0.032 A 
ATOM     14  C10 UNK     1      -3.271  37.551 227.844  1.00  0.00     0.328 A 
ATOM     15  H17 UNK     1      -4.493  38.523 226.321  1.00  0.00     0.171 HD
ATOM     16  O1  UNK     1      -3.864  36.511 228.094  1.00  0.00    -0.247 OA
ATOM     17  C18 UNK     1      -1.624  41.600 226.388  1.00  0.00     0.002 A 
ATOM     18  C17 UNK     1      -0.617  41.288 227.325  1.00  0.00     0.002 A 
ENDBRANCH   5   8
ENDBRANCH   1   2
BRANCH   1  19
ATOM     19  C7  UNK     1       1.020  34.986 232.695  1.00  0.00     0.031 C 
BRANCH  19  20
ATOM     20  C9  UNK     1       1.319  34.439 234.099  1.00  0.00     0.016 C 
BRANCH  20  21
ATOM     21  C11 UNK     1       0.885  35.414 235.225  1.00  0.00     0.051 C 
BRANCH  21  22
ATOM     22  C14 UNK     1      -0.211  34.859 236.125  1.00  0.00    -0.049 A 
ATOM     23  C19 UNK     1      -1.422  35.518 236.182  1.00  0.00     0.011 A 
ATOM     24  C23 UNK     1      -2.425  35.010 237.007  1.00  0.00     0.043 A 
ATOM     25  C27 UNK     1      -2.196  33.856 237.756  1.00  0.00     0.116 A 
ATOM     26  F1  UNK     1      -3.159  33.369 238.549  1.00  0.00    -0.206 F 
ATOM     27  C25 UNK     1      -0.961  33.209 237.681  1.00  0.00     0.043 A 
ATOM     28  C21 UNK     1       0.042  33.717 236.855  1.00  0.00     0.011 A 
ENDBRANCH  21  22
BRANCH  21  29
ATOM     29  C15 UNK     1       2.060  35.941 236.045  1.00  0.00    -0.049 A 
ATOM     30  C20 UNK     1       3.245  35.239 236.031  1.00  0.00     0.011 A 
ATOM     31  C24 UNK     1       4.318  35.721 236.779  1.00  0.00     0.043 A 
ATOM     32  C28 UNK     1       4.180  36.891 237.525  1.00  0.00     0.116 A 
ATOM     33  F2  UNK     1       5.210  37.353 238.245  1.00  0.00    -0.206 F 
ATOM     34  C26 UNK     1       2.968  37.581 237.520  1.00  0.00     0.043 A 
ATOM     35  C22 UNK     1       1.893  37.099 236.771  1.00  0.00     0.011 A 
ENDBRANCH  21  29
ENDBRANCH  20  21
ENDBRANCH  19  20
ENDBRANCH   1  19
TORSDOF 7
ENDMDL
MODEL 8
REMARK VINA RESULT:      -8.1      2.604      4.900
REMARK  7 active torsions:
REMARK  status: ('A' for Active; 'I' for Inactive)
REMARK    1  A    between atoms: N1_4  and  C6_12 
REMARK    2  A    between atoms: N2_5  and  C1_7 
REMARK    3  A    between atoms: C6_12  and  C7_13 
REMARK    4  A    between atoms: C7_13  and  C9_15 
REMARK    5  A    between atoms: C9_15  and  C11_17 
REMARK    6  A    between atoms: C11_17  and  C14_20 
REMARK    7  A    between atoms: C11_17  and  C15_21 
ROOT
ATOM      1  C6  UNK     1      -1.997  34.622 232.721  1.00  0.00     0.272 C 
ENDROOT
BRANCH   1   2
ATOM      2  N1  UNK     1      -0.995  35.219 233.605  1.00  0.00     0.088 N 
ATOM      3  C4  UNK     1      -1.497  35.277 234.985  1.00  0.00     0.274 C 
ATOM      4  C2  UNK     1      -0.482  35.947 235.913  1.00  0.00     0.056 C 
ATOM      5  C1  UNK     1       0.873  35.241 235.856  1.00  0.00     0.098 C 
ATOM      6  C3  UNK     1       1.342  35.114 234.406  1.00  0.00     0.056 C 
ATOM      7  C5  UNK     1       0.267  34.471 233.529  1.00  0.00     0.274 C 
BRANCH   5   8
ATOM      8  N2  UNK     1       1.848  35.935 236.659  1.00  0.00    -0.293 N 
ATOM      9  C8  UNK     1       2.609  35.363 237.687  1.00  0.00     0.066 A 
ATOM     10  C12 UNK     1       3.430  36.359 238.213  1.00  0.00     0.063 A 
ATOM     11  C13 UNK     1       2.633  34.074 238.179  1.00  0.00     0.032 A 
ATOM     12  N3  UNK     1       3.188  37.547 237.523  1.00  0.00    -0.306 N 
ATOM     13  C16 UNK     1       4.308  36.123 239.248  1.00  0.00     0.032 A 
ATOM     14  C10 UNK     1       2.191  37.309 236.534  1.00  0.00     0.328 A 
ATOM     15  H17 UNK     1       3.651  38.428 237.706  1.00  0.00     0.171 HD
ATOM     16  O1  UNK     1       1.737  38.128 235.747  1.00  0.00    -0.247 OA
ATOM     17  C18 UNK     1       4.346  34.822 239.758  1.00  0.00     0.002 A 
ATOM     18  C17 UNK     1       3.517  33.810 239.230  1.00  0.00     0.002 A 
ENDBRANCH   5   8
ENDBRANCH   1   2
BRANCH   1  19
ATOM     19  C7  UNK     1      -2.748  35.712 231.957  1.00  0.00     0.031 C 
BRANCH  19  20
ATOM     20  C9  UNK     1      -1.773  36.622 231.194  1.00  0.00     0.016 C 
BRANCH  20  21
ATOM     21  C11 UNK     1      -1.823  36.397 229.660  1.00  0.00     0.051 C 
BRANCH  21  22
ATOM     22  C14 UNK     1      -2.052  37.673 228.861  1.00  0.00    -0.049 A 
ATOM     23  C19 UNK     1      -3.146  37.748 228.024  1.00  0.00     0.011 A 
ATOM     24  C23 UNK     1      -3.354  38.916 227.293  1.00  0.00     0.043 A 
ATOM     25  C27 UNK     1      -2.466  39.984 227.414  1.00  0.00     0.116 A 
ATOM     26  F1  UNK     1      -2.666  41.106 226.711  1.00  0.00    -0.206 F 
ATOM     27  C25 UNK     1      -1.366  39.883 228.268  1.00  0.00     0.043 A 
ATOM     28  C21 UNK     1      -1.158  38.714 229.000  1.00  0.00     0.011 A 
ENDBRANCH  21  22
BRANCH  21  29
ATOM     29  C15 UNK     1      -0.619  35.622 229.130  1.00  0.00    -0.049 A 
ATOM     30  C20 UNK     1      -0.651  35.154 227.835  1.00  0.00     0.011 A 
ATOM     31  C24 UNK     1       0.449  34.447 227.350  1.00  0.00     0.043 A 
ATOM     32  C28 UNK     1       1.552  34.224 228.173  1.00  0.00     0.116 A 
ATOM     33  F2  UNK     1       2.608  33.543 227.708  1.00  0.00    -0.206 F 
ATOM     34  C26 UNK     1       1.557  34.709 229.481  1.00  0.00     0.043 A 
ATOM     35  C22 UNK     1       0.456  35.417 229.966  1.00  0.00     0.011 A 
ENDBRANCH  21  29
ENDBRANCH  20  21
ENDBRANCH  19  20
ENDBRANCH   1  19
TORSDOF 7
ENDMDL
MODEL 9
REMARK VINA RESULT:      -8.1      4.165     10.620
REMARK  7 active torsions:
REMARK  status: ('A' for Active; 'I' for Inactive)
REMARK    1  A    between atoms: N1_4  and  C6_12 
REMARK    2  A    between atoms: N2_5  and  C1_7 
REMARK    3  A    between atoms: C6_12  and  C7_13 
REMARK    4  A    between atoms: C7_13  and  C9_15 
REMARK    5  A    between atoms: C9_15  and  C11_17 
REMARK    6  A    between atoms: C11_17  and  C14_20 
REMARK    7  A    between atoms: C11_17  and  C15_21 
ROOT
ATOM      1  C6  UNK     1      -0.344  33.648 231.845  1.00  0.00     0.272 C 
ENDROOT
BRANCH   1   2
ATOM      2  N1  UNK     1      -0.935  34.617 230.921  1.00  0.00     0.088 N 
ATOM      3  C4  UNK     1      -1.604  35.693 231.664  1.00  0.00     0.274 C 
ATOM      4  C2  UNK     1      -2.273  36.687 230.713  1.00  0.00     0.056 C 
ATOM      5  C1  UNK     1      -1.269  37.260 229.713  1.00  0.00     0.098 C 
ATOM      6  C3  UNK     1      -0.521  36.128 229.007  1.00  0.00     0.056 C 
ATOM      7  C5  UNK     1       0.090  35.153 230.015  1.00  0.00     0.274 C 
BRANCH   5   8
ATOM      8  N2  UNK     1      -1.925  38.121 228.762  1.00  0.00    -0.293 N 
ATOM      9  C8  UNK     1      -2.958  37.738 227.896  1.00  0.00     0.066 A 
ATOM     10  C12 UNK     1      -3.317  38.854 227.143  1.00  0.00     0.063 A 
ATOM     11  C13 UNK     1      -3.585  36.520 227.727  1.00  0.00     0.032 A 
ATOM     12  N3  UNK     1      -2.518  39.929 227.529  1.00  0.00    -0.306 N 
ATOM     13  C16 UNK     1      -4.311  38.812 226.190  1.00  0.00     0.032 A 
ATOM     14  C10 UNK     1      -1.627  39.495 228.553  1.00  0.00     0.328 A 
ATOM     15  H17 UNK     1      -2.572  40.861 227.138  1.00  0.00     0.171 HD
ATOM     16  O1  UNK     1      -0.787  40.178 229.122  1.00  0.00    -0.247 OA
ATOM     17  C18 UNK     1      -4.958  37.587 226.005  1.00  0.00     0.002 A 
ATOM     18  C17 UNK     1      -4.598  36.454 226.765  1.00  0.00     0.002 A 
ENDBRANCH   5   8
ENDBRANCH   1   2
BRANCH   1  19
ATOM     19  C7  UNK     1       0.923  34.222 232.476  1.00  0.00     0.031 C 
BRANCH  19  20
ATOM     20  C9  UNK     1       1.203  33.575 233.841  1.00  0.00     0.016 C 
BRANCH  20  21
ATOM     21  C11 UNK     1       2.106  34.454 234.745  1.00  0.00     0.051 C 
BRANCH  21  22
ATOM     22  C14 UNK     1       1.352  35.557 235.477  1.00  0.00    -0.049 A 
ATOM     23  C19 UNK     1       1.975  36.772 235.673  1.00  0.00     0.011 A 
ATOM     24  C23 UNK     1       1.284  37.780 236.344  1.00  0.00     0.043 A 
ATOM     25  C27 UNK     1      -0.013  37.552 236.803  1.00  0.00     0.116 A 
ATOM     26  F1  UNK     1      -0.676  38.521 237.447  1.00  0.00    -0.206 F 
ATOM     27  C25 UNK     1      -0.620  36.314 236.592  1.00  0.00     0.043 A 
ATOM     28  C21 UNK     1       0.071  35.304 235.920  1.00  0.00     0.011 A 
ENDBRANCH  21  22
BRANCH  21  29
ATOM     29  C15 UNK     1       2.962  33.637 235.709  1.00  0.00    -0.049 A 
ATOM     30  C20 UNK     1       3.303  34.190 236.924  1.00  0.00     0.011 A 
ATOM     31  C24 UNK     1       4.084  33.443 237.805  1.00  0.00     0.043 A 
ATOM     32  C28 UNK     1       4.507  32.163 237.449  1.00  0.00     0.116 A 
ATOM     33  F2  UNK     1       5.259  31.446 238.295  1.00  0.00    -0.206 F 
ATOM     34  C26 UNK     1       4.147  31.628 236.213  1.00  0.00     0.043 A 
ATOM     35  C22 UNK     1       3.365  32.375 235.331  1.00  0.00     0.011 A 
ENDBRANCH  21  29
ENDBRANCH  20  21
ENDBRANCH  19  20
ENDBRANCH   1  19
TORSDOF 7
ENDMDL
