MODEL 1
REMARK VINA RESULT:      -8.1      0.000      0.000
REMARK  7 active torsions:
REMARK  status: ('A' for Active; 'I' for Inactive)
REMARK    1  A    between atoms: C2_6  and  C21_2 
REMARK       I    between atoms: C21_2  and  N2_3 
REMARK    2  A    between atoms: C3_9  and  O2_10 
REMARK    3  A    between atoms: C4_12  and  N1_13 
REMARK    4  A    between atoms: C18_17  and  O7_18 
REMARK    5  A    between atoms: C17_20  and  O6_21 
REMARK    6  A    between atoms: C13_31  and  O4_32 
REMARK    7  A    between atoms: C10_36  and  N7_37 
ROOT
HETATM    1  C2  MIY  5181       2.717  36.119 237.411  1.00 20.00     0.116 C 
HETATM    2  C1  MIY  5181       1.679  36.657 236.501  1.00 20.00     0.209 C 
HETATM    3  O1  MIY  5181       1.685  37.843 236.237  1.00 20.00    -0.288 OA
HETATM    4  C3  MIY  5181       2.768  34.768 237.615  1.00 20.00     0.108 C 
HETATM    5  C4  MIY  5181       1.919  33.719 236.829  1.00 20.00     0.049 C 
HETATM    6  C5  MIY  5181       1.070  34.306 235.651  1.00 20.00     0.088 C 
HETATM    7  C18 MIY  5181       0.568  35.729 235.948  1.00 20.00     0.180 C 
HETATM    8  C17 MIY  5181      -0.264  36.173 234.726  1.00 20.00     0.097 C 
HETATM    9  C16 MIY  5181      -0.249  35.632 233.485  1.00 20.00     0.030 C 
HETATM   10  C7  MIY  5181       0.604  34.447 233.124  1.00 20.00     0.030 C 
HETATM   11  C6  MIY  5181       1.656  34.175 234.226  1.00 20.00     0.024 C 
HETATM   12  C15 MIY  5181      -1.098  36.264 232.451  1.00 20.00     0.194 C 
HETATM   13  O5  MIY  5181      -1.951  37.135 232.673  1.00 20.00    -0.287 OA
HETATM   14  C14 MIY  5181      -0.854  35.940 231.026  1.00 20.00     0.056 A 
HETATM   15  C9  MIY  5181       0.295  35.239 230.671  1.00 20.00    -0.019 A 
HETATM   16  C8  MIY  5181       1.271  34.768 231.765  1.00 20.00     0.051 C 
HETATM   17  C13 MIY  5181      -1.783  36.409 230.104  1.00 20.00     0.080 A 
HETATM   18  C12 MIY  5181      -1.577  36.164 228.748  1.00 20.00     0.039 A 
HETATM   19  C11 MIY  5181      -0.432  35.467 228.363  1.00 20.00     0.027 A 
HETATM   20  C10 MIY  5181       0.500  35.003 229.305  1.00 20.00     0.017 A 
ENDROOT
BRANCH   1  21
HETATM   21  C21 MIY  5181       3.678  37.056 238.070  1.00 20.00     0.256 C 
HETATM   22  N2  MIY  5181       4.580  37.625 237.240  1.00 20.00    -0.366 N 
ATOM     23  H22 MIY  5181       4.621  37.425 236.240  1.00  0.00     0.159 HD
ATOM     24  H21 MIY  5181       5.236  38.264 237.689  1.00  0.00     0.159 HD
HETATM   25  O8  MIY  5181       3.629  37.298 239.287  1.00 20.00    -0.268 OA
ENDBRANCH   1  21
BRANCH   4  26
HETATM   26  O2  MIY  5181       3.622  34.304 238.545  1.00 20.00    -0.358 OA
ATOM     27  H2  MIY  5181       4.536  34.552 238.472  1.00  0.00     0.218 HD
ENDBRANCH   4  26
BRANCH   7  28
HETATM   28  O7  MIY  5181      -0.416  35.638 236.989  1.00 20.00    -0.374 OA
ATOM     29  H7  MIY  5181      -0.764  36.515 237.093  1.00  0.00     0.211 HD
ENDBRANCH   7  28
BRANCH   5  30
HETATM   30  N1  MIY  5181       1.202  32.680 237.742  1.00 20.00    -0.390 N 
HETATM   31  C19 MIY  5181      -0.230  32.369 237.495  1.00 20.00     0.149 C 
HETATM   32  C20 MIY  5181       1.920  31.394 238.036  1.00 20.00     0.149 C 
ENDBRANCH   5  30
BRANCH   8  33
HETATM   33  O6  MIY  5181      -1.171  37.142 234.931  1.00 20.00    -0.361 OA
ATOM     34  H6  MIY  5181      -0.949  37.783 235.597  1.00  0.00     0.217 HD
ENDBRANCH   8  33
BRANCH  17  35
HETATM   35  O4  MIY  5181      -2.893  37.094 230.554  1.00 20.00    -0.360 OA
ATOM     36  H4  MIY  5181      -3.662  36.638 230.877  1.00  0.00     0.217 HD
ENDBRANCH  17  35
BRANCH  20  37
HETATM   37  N7  MIY  5181       1.645  34.361 228.845  1.00 20.00    -0.291 NA
HETATM   38  C71 MIY  5181       1.310  33.238 227.945  1.00 20.00     0.116 C 
HETATM   39  CN7 MIY  5181       2.283  35.385 228.008  1.00 20.00     0.116 C 
ENDBRANCH  20  37
TORSDOF 7
ENDMDL
MODEL 2
REMARK VINA RESULT:      -7.4      6.321      9.093
REMARK  7 active torsions:
REMARK  status: ('A' for Active; 'I' for Inactive)
REMARK    1  A    between atoms: C2_6  and  C21_2 
REMARK       I    between atoms: C21_2  and  N2_3 
REMARK    2  A    between atoms: C3_9  and  O2_10 
REMARK    3  A    between atoms: C4_12  and  N1_13 
REMARK    4  A    between atoms: C18_17  and  O7_18 
REMARK    5  A    between atoms: C17_20  and  O6_21 
REMARK    6  A    between atoms: C13_31  and  O4_32 
REMARK    7  A    between atoms: C10_36  and  N7_37 
ROOT
HETATM    1  C2  MIY  5181      -1.367  40.689 226.456  1.00 20.00     0.116 C 
HETATM    2  C1  MIY  5181      -1.824  39.525 227.251  1.00 20.00     0.209 C 
HETATM    3  O1  MIY  5181      -2.923  39.057 227.030  1.00 20.00    -0.288 OA
HETATM    4  C3  MIY  5181      -0.089  41.140 226.636  1.00 20.00     0.108 C 
HETATM    5  C4  MIY  5181       0.993  40.418 227.500  1.00 20.00     0.049 C 
HETATM    6  C5  MIY  5181       0.565  39.020 228.062  1.00 20.00     0.088 C 
HETATM    7  C18 MIY  5181      -0.937  38.960 228.389  1.00 20.00     0.180 C 
HETATM    8  C17 MIY  5181      -1.215  37.549 228.948  1.00 20.00     0.097 C 
HETATM    9  C16 MIY  5181      -0.435  36.449 228.823  1.00 20.00     0.030 C 
HETATM   10  C7  MIY  5181       0.889  36.468 228.109  1.00 20.00     0.030 C 
HETATM   11  C6  MIY  5181       1.050  37.771 227.290  1.00 20.00     0.024 C 
HETATM   12  C15 MIY  5181      -0.936  35.182 229.400  1.00 20.00     0.194 C 
HETATM   13  O5  MIY  5181      -1.927  35.086 230.140  1.00 20.00    -0.287 OA
HETATM   14  C14 MIY  5181      -0.304  33.907 228.991  1.00 20.00     0.056 A 
HETATM   15  C9  MIY  5181       0.582  33.896 227.917  1.00 20.00    -0.019 A 
HETATM   16  C8  MIY  5181       0.930  35.215 227.201  1.00 20.00     0.051 C 
HETATM   17  C13 MIY  5181      -0.679  32.764 229.688  1.00 20.00     0.080 A 
HETATM   18  C12 MIY  5181      -0.141  31.534 229.315  1.00 20.00     0.039 A 
HETATM   19  C11 MIY  5181       0.747  31.494 228.240  1.00 20.00     0.027 A 
HETATM   20  C10 MIY  5181       1.114  32.655 227.542  1.00 20.00     0.017 A 
ENDROOT
BRANCH   1  21
HETATM   21  C21 MIY  5181      -2.302  41.329 225.481  1.00 20.00     0.256 C 
HETATM   22  N2  MIY  5181      -2.062  41.034 224.183  1.00 20.00    -0.366 N 
ATOM     23  H22 MIY  5181      -1.294  40.433 223.881  1.00  0.00     0.159 HD
ATOM     24  H21 MIY  5181      -2.699  41.470 223.518  1.00  0.00     0.159 HD
HETATM   25  O8  MIY  5181      -3.235  42.060 225.848  1.00 20.00    -0.268 OA
ENDBRANCH   1  21
BRANCH   4  26
HETATM   26  O2  MIY  5181       0.271  42.276 226.013  1.00 20.00    -0.358 OA
ATOM     27  H2  MIY  5181       0.005  43.101 226.403  1.00  0.00     0.218 HD
ENDBRANCH   4  26
BRANCH   7  28
HETATM   28  O7  MIY  5181      -1.173  39.807 229.523  1.00 20.00    -0.374 OA
ATOM     29  H7  MIY  5181      -1.631  39.268 230.157  1.00  0.00     0.211 HD
ENDBRANCH   7  28
BRANCH   5  30
HETATM   30  N1  MIY  5181       1.736  41.361 228.494  1.00 20.00    -0.390 N 
HETATM   31  C19 MIY  5181       3.022  41.978 228.078  1.00 20.00     0.149 C 
HETATM   32  C20 MIY  5181       0.923  42.401 229.210  1.00 20.00     0.149 C 
ENDBRANCH   5  30
BRANCH   8  33
HETATM   33  O6  MIY  5181      -2.303  37.408 229.723  1.00 20.00    -0.361 OA
ATOM     34  H6  MIY  5181      -2.989  36.849 229.376  1.00  0.00     0.217 HD
ENDBRANCH   8  33
BRANCH  17  35
HETATM   35  O4  MIY  5181      -1.564  32.876 230.741  1.00 20.00    -0.360 OA
ATOM     36  H4  MIY  5181      -2.396  33.323 230.645  1.00  0.00     0.217 HD
ENDBRANCH  17  35
BRANCH  20  37
HETATM   37  N7  MIY  5181       1.962  32.532 226.447  1.00 20.00    -0.291 NA
HETATM   38  C71 MIY  5181       2.855  31.363 226.585  1.00 20.00     0.116 C 
HETATM   39  CN7 MIY  5181       1.039  32.220 225.348  1.00 20.00     0.116 C 
ENDBRANCH  20  37
TORSDOF 7
ENDMDL
MODEL 3
REMARK VINA RESULT:      -7.2      2.322      7.963
REMARK  7 active torsions:
REMARK  status: ('A' for Active; 'I' for Inactive)
REMARK    1  A    between atoms: C2_6  and  C21_2 
REMARK       I    between atoms: C21_2  and  N2_3 
REMARK    2  A    between atoms: C3_9  and  O2_10 
REMARK    3  A    between atoms: C4_12  and  N1_13 
REMARK    4  A    between atoms: C18_17  and  O7_18 
REMARK    5  A    between atoms: C17_20  and  O6_21 
REMARK    6  A    between atoms: C13_31  and  O4_32 
REMARK    7  A    between atoms: C10_36  and  N7_37 
ROOT
HETATM    1  C2  MIY  5181      -1.928  34.776 233.427  1.00 20.00     0.116 C 
HETATM    2  C1  MIY  5181      -1.104  35.666 234.278  1.00 20.00     0.209 C 
HETATM    3  O1  MIY  5181      -1.652  36.347 235.122  1.00 20.00    -0.288 OA
HETATM    4  C3  MIY  5181      -1.293  33.934 232.556  1.00 20.00     0.108 C 
HETATM    5  C4  MIY  5181       0.253  33.716 232.502  1.00 20.00     0.049 C 
HETATM    6  C5  MIY  5181       1.062  34.434 233.635  1.00 20.00     0.088 C 
HETATM    7  C18 MIY  5181       0.425  35.773 234.045  1.00 20.00     0.180 C 
HETATM    8  C17 MIY  5181       1.326  36.377 235.142  1.00 20.00     0.097 C 
HETATM    9  C16 MIY  5181       2.251  35.732 235.891  1.00 20.00     0.030 C 
HETATM   10  C7  MIY  5181       2.557  34.268 235.722  1.00 20.00     0.030 C 
HETATM   11  C6  MIY  5181       1.476  33.580 234.856  1.00 20.00     0.024 C 
HETATM   12  C15 MIY  5181       2.962  36.512 236.928  1.00 20.00     0.194 C 
HETATM   13  O5  MIY  5181       2.906  37.745 237.046  1.00 20.00    -0.287 OA
HETATM   14  C14 MIY  5181       3.707  35.790 237.984  1.00 20.00     0.056 A 
HETATM   15  C9  MIY  5181       3.542  34.415 238.120  1.00 20.00    -0.019 A 
HETATM   16  C8  MIY  5181       2.627  33.655 237.141  1.00 20.00     0.051 C 
HETATM   17  C13 MIY  5181       4.506  36.554 238.828  1.00 20.00     0.080 A 
HETATM   18  C12 MIY  5181       5.196  35.927 239.862  1.00 20.00     0.039 A 
HETATM   19  C11 MIY  5181       5.047  34.549 240.023  1.00 20.00     0.027 A 
HETATM   20  C10 MIY  5181       4.233  33.790 239.167  1.00 20.00     0.017 A 
ENDROOT
BRANCH   1  21
HETATM   21  C21 MIY  5181      -3.418  34.811 233.548  1.00 20.00     0.256 C 
HETATM   22  N2  MIY  5181      -3.914  34.228 234.663  1.00 20.00    -0.366 N 
ATOM     23  H22 MIY  5181      -3.325  33.782 235.367  1.00  0.00     0.159 HD
ATOM     24  H21 MIY  5181      -4.930  34.253 234.745  1.00  0.00     0.159 HD
HETATM   25  O8  MIY  5181      -4.133  35.354 232.692  1.00 20.00    -0.268 OA
ENDBRANCH   1  21
BRANCH   4  26
HETATM   26  O2  MIY  5181      -2.050  33.231 231.696  1.00 20.00    -0.358 OA
ATOM     27  H2  MIY  5181      -2.131  32.295 231.837  1.00  0.00     0.218 HD
ENDBRANCH   4  26
BRANCH   7  28
HETATM   28  O7  MIY  5181       0.590  36.689 232.953  1.00 20.00    -0.374 OA
ATOM     29  H7  MIY  5181      -0.240  37.144 232.870  1.00  0.00     0.211 HD
ENDBRANCH   7  28
BRANCH   5  30
HETATM   30  N1  MIY  5181       0.850  33.807 231.066  1.00 20.00    -0.390 N 
HETATM   31  C19 MIY  5181       0.858  32.593 230.209  1.00 20.00     0.149 C 
HETATM   32  C20 MIY  5181       0.453  34.981 230.217  1.00 20.00     0.149 C 
ENDBRANCH   5  30
BRANCH   8  33
HETATM   33  O6  MIY  5181       1.257  37.707 235.317  1.00 20.00    -0.361 OA
ATOM     34  H6  MIY  5181       0.449  38.033 235.696  1.00  0.00     0.217 HD
ENDBRANCH   8  33
BRANCH  17  35
HETATM   35  O4  MIY  5181       4.608  37.913 238.612  1.00 20.00    -0.360 OA
ATOM     36  H4  MIY  5181       5.419  38.383 238.770  1.00  0.00     0.217 HD
ENDBRANCH  17  35
BRANCH  20  37
HETATM   37  N7  MIY  5181       4.089  32.430 239.420  1.00 20.00    -0.291 NA
HETATM   38  C71 MIY  5181       5.229  31.658 238.883  1.00 20.00     0.116 C 
HETATM   39  CN7 MIY  5181       4.191  32.354 240.883  1.00 20.00     0.116 C 
ENDBRANCH  20  37
TORSDOF 7
ENDMDL
MODEL 4
REMARK VINA RESULT:      -6.4      2.830      7.892
REMARK  7 active torsions:
REMARK  status: ('A' for Active; 'I' for Inactive)
REMARK    1  A    between atoms: C2_6  and  C21_2 
REMARK       I    between atoms: C21_2  and  N2_3 
REMARK    2  A    between atoms: C3_9  and  O2_10 
REMARK    3  A    between atoms: C4_12  and  N1_13 
REMARK    4  A    between atoms: C18_17  and  O7_18 
REMARK    5  A    between atoms: C17_20  and  O6_21 
REMARK    6  A    between atoms: C13_31  and  O4_32 
REMARK    7  A    between atoms: C10_36  and  N7_37 
ROOT
HETATM    1  C2  MIY  5181      -1.319  31.757 229.956  1.00 20.00     0.116 C 
HETATM    2  C1  MIY  5181      -1.773  32.808 230.896  1.00 20.00     0.209 C 
HETATM    3  O1  MIY  5181      -2.695  32.564 231.649  1.00 20.00    -0.288 OA
HETATM    4  C3  MIY  5181      -0.213  32.002 229.190  1.00 20.00     0.108 C 
HETATM    5  C4  MIY  5181       0.717  33.248 229.347  1.00 20.00     0.049 C 
HETATM    6  C5  MIY  5181       0.384  34.170 230.568  1.00 20.00     0.088 C 
HETATM    7  C18 MIY  5181      -1.123  34.214 230.870  1.00 20.00     0.180 C 
HETATM    8  C17 MIY  5181      -1.310  35.167 232.069  1.00 20.00     0.097 C 
HETATM    9  C16 MIY  5181      -0.362  35.578 232.945  1.00 20.00     0.030 C 
HETATM   10  C7  MIY  5181       1.079  35.159 232.840  1.00 20.00     0.030 C 
HETATM   11  C6  MIY  5181       1.235  33.984 231.846  1.00 20.00     0.024 C 
HETATM   12  C15 MIY  5181      -0.789  36.456 234.057  1.00 20.00     0.194 C 
HETATM   13  O5  MIY  5181      -1.906  36.986 234.149  1.00 20.00    -0.287 OA
HETATM   14  C14 MIY  5181       0.116  36.639 235.214  1.00 20.00     0.056 A 
HETATM   15  C9  MIY  5181       1.233  35.819 235.346  1.00 20.00    -0.019 A 
HETATM   16  C8  MIY  5181       1.541  34.767 234.264  1.00 20.00     0.051 C 
HETATM   17  C13 MIY  5181      -0.239  37.608 236.147  1.00 20.00     0.080 A 
HETATM   18  C12 MIY  5181       0.559  37.791 237.274  1.00 20.00     0.039 A 
HETATM   19  C11 MIY  5181       1.684  36.981 237.432  1.00 20.00     0.027 A 
HETATM   20  C10 MIY  5181       2.028  36.003 236.485  1.00 20.00     0.017 A 
ENDROOT
BRANCH   1  21
HETATM   21  C21 MIY  5181      -2.066  30.465 229.874  1.00 20.00     0.256 C 
HETATM   22  N2  MIY  5181      -2.081  29.742 231.016  1.00 20.00    -0.366 N 
ATOM     23  H22 MIY  5181      -1.607  30.039 231.870  1.00  0.00     0.159 HD
ATOM     24  H21 MIY  5181      -2.590  28.860 230.961  1.00  0.00     0.159 HD
HETATM   25  O8  MIY  5181      -2.642  30.104 228.836  1.00 20.00    -0.268 OA
ENDBRANCH   1  21
BRANCH   4  26
HETATM   26  O2  MIY  5181       0.111  31.101 228.245  1.00 20.00    -0.358 OA
ATOM     27  H2  MIY  5181       0.559  31.414 227.468  1.00  0.00     0.218 HD
ENDBRANCH   4  26
BRANCH   7  28
HETATM   28  O7  MIY  5181      -1.764  34.919 229.797  1.00 20.00    -0.374 OA
ATOM     29  H7  MIY  5181      -1.176  35.628 229.566  1.00  0.00     0.211 HD
ENDBRANCH   7  28
BRANCH   5  30
HETATM   30  N1  MIY  5181       1.031  33.971 228.003  1.00 20.00    -0.390 N 
HETATM   31  C19 MIY  5181       0.984  35.456 227.956  1.00 20.00     0.149 C 
HETATM   32  C20 MIY  5181       2.230  33.511 227.225  1.00 20.00     0.149 C 
ENDBRANCH   5  30
BRANCH   8  33
HETATM   33  O6  MIY  5181      -2.522  35.727 232.214  1.00 20.00    -0.361 OA
ATOM     34  H6  MIY  5181      -3.036  35.416 232.951  1.00  0.00     0.217 HD
ENDBRANCH   8  33
BRANCH  17  35
HETATM   35  O4  MIY  5181      -1.366  38.373 235.928  1.00 20.00    -0.360 OA
ATOM     36  H4  MIY  5181      -1.640  38.616 235.051  1.00  0.00     0.217 HD
ENDBRANCH  17  35
BRANCH  20  37
HETATM   37  N7  MIY  5181       3.133  35.196 236.736  1.00 20.00    -0.291 NA
HETATM   38  C71 MIY  5181       4.261  35.980 237.280  1.00 20.00     0.116 C 
HETATM   39  CN7 MIY  5181       2.668  34.330 237.827  1.00 20.00     0.116 C 
ENDBRANCH  20  37
TORSDOF 7
ENDMDL
MODEL 5
REMARK VINA RESULT:      -6.4      2.569      3.789
REMARK  7 active torsions:
REMARK  status: ('A' for Active; 'I' for Inactive)
REMARK    1  A    between atoms: C2_6  and  C21_2 
REMARK       I    between atoms: C21_2  and  N2_3 
REMARK    2  A    between atoms: C3_9  and  O2_10 
REMARK    3  A    between atoms: C4_12  and  N1_13 
REMARK    4  A    between atoms: C18_17  and  O7_18 
REMARK    5  A    between atoms: C17_20  and  O6_21 
REMARK    6  A    between atoms: C13_31  and  O4_32 
REMARK    7  A    between atoms: C10_36  and  N7_37 
ROOT
HETATM    1  C2  MIY  5181      -0.676  36.717 236.518  1.00 20.00     0.116 C 
HETATM    2  C1  MIY  5181      -1.090  35.584 235.658  1.00 20.00     0.209 C 
HETATM    3  O1  MIY  5181      -2.250  35.508 235.303  1.00 20.00    -0.288 OA
HETATM    4  C3  MIY  5181       0.650  36.853 236.823  1.00 20.00     0.108 C 
HETATM    5  C4  MIY  5181       1.797  35.998 236.195  1.00 20.00     0.049 C 
HETATM    6  C5  MIY  5181       1.348  35.030 235.049  1.00 20.00     0.088 C 
HETATM    7  C18 MIY  5181      -0.071  34.481 235.275  1.00 20.00     0.180 C 
HETATM    8  C17 MIY  5181      -0.376  33.533 234.096  1.00 20.00     0.097 C 
HETATM    9  C16 MIY  5181       0.264  33.477 232.904  1.00 20.00     0.030 C 
HETATM   10  C7  MIY  5181       1.437  34.357 232.567  1.00 20.00     0.030 C 
HETATM   11  C6  MIY  5181       1.570  35.506 233.595  1.00 20.00     0.024 C 
HETATM   12  C15 MIY  5181      -0.242  32.517 231.897  1.00 20.00     0.194 C 
HETATM   13  O5  MIY  5181      -1.090  31.641 232.121  1.00 20.00    -0.287 OA
HETATM   14  C14 MIY  5181       0.187  32.663 230.488  1.00 20.00     0.056 A 
HETATM   15  C9  MIY  5181       0.863  33.814 230.094  1.00 20.00    -0.019 A 
HETATM   16  C8  MIY  5181       1.199  34.897 231.136  1.00 20.00     0.051 C 
HETATM   17  C13 MIY  5181      -0.162  31.641 229.612  1.00 20.00     0.080 A 
HETATM   18  C12 MIY  5181       0.184  31.750 228.267  1.00 20.00     0.039 A 
HETATM   19  C11 MIY  5181       0.859  32.895 227.844  1.00 20.00     0.027 A 
HETATM   20  C10 MIY  5181       1.202  33.922 228.738  1.00 20.00     0.017 A 
ENDROOT
BRANCH   1  21
HETATM   21  C21 MIY  5181      -1.705  37.678 237.020  1.00 20.00     0.256 C 
HETATM   22  N2  MIY  5181      -2.816  37.107 237.535  1.00 20.00    -0.366 N 
ATOM     23  H22 MIY  5181      -2.959  36.097 237.570  1.00  0.00     0.159 HD
ATOM     24  H21 MIY  5181      -3.518  37.762 237.877  1.00  0.00     0.159 HD
HETATM   25  O8  MIY  5181      -1.532  38.907 236.977  1.00 20.00    -0.268 OA
ENDBRANCH   1  21
BRANCH   4  26
HETATM   26  O2  MIY  5181       0.998  37.801 237.711  1.00 20.00    -0.358 OA
ATOM     27  H2  MIY  5181       0.823  38.707 237.487  1.00  0.00     0.218 HD
ENDBRANCH   4  26
BRANCH   7  28
HETATM   28  O7  MIY  5181      -0.022  33.589 236.399  1.00 20.00    -0.374 OA
ATOM     29  H7  MIY  5181      -0.685  32.929 236.234  1.00  0.00     0.211 HD
ENDBRANCH   7  28
BRANCH   5  30
HETATM   30  N1  MIY  5181       2.788  35.410 237.244  1.00 20.00    -0.390 N 
HETATM   31  C19 MIY  5181       3.269  34.014 237.077  1.00 20.00     0.149 C 
HETATM   32  C20 MIY  5181       3.951  36.264 237.662  1.00 20.00     0.149 C 
ENDBRANCH   5  30
BRANCH   8  33
HETATM   33  O6  MIY  5181      -1.317  32.597 234.299  1.00 20.00    -0.361 OA
ATOM     34  H6  MIY  5181      -1.523  32.048 233.551  1.00  0.00     0.217 HD
ENDBRANCH   8  33
BRANCH  17  35
HETATM   35  O4  MIY  5181      -0.832  30.536 230.098  1.00 20.00    -0.360 OA
ATOM     36  H4  MIY  5181      -1.636  30.623 230.598  1.00  0.00     0.217 HD
ENDBRANCH  17  35
BRANCH  20  37
HETATM   37  N7  MIY  5181       1.828  35.058 228.236  1.00 20.00    -0.291 NA
HETATM   38  C71 MIY  5181       2.449  34.795 226.921  1.00 20.00     0.116 C 
HETATM   39  CN7 MIY  5181       0.705  35.971 227.988  1.00 20.00     0.116 C 
ENDBRANCH  20  37
TORSDOF 7
ENDMDL
MODEL 6
REMARK VINA RESULT:      -6.1      2.057      2.761
REMARK  7 active torsions:
REMARK  status: ('A' for Active; 'I' for Inactive)
REMARK    1  A    between atoms: C2_6  and  C21_2 
REMARK       I    between atoms: C21_2  and  N2_3 
REMARK    2  A    between atoms: C3_9  and  O2_10 
REMARK    3  A    between atoms: C4_12  and  N1_13 
REMARK    4  A    between atoms: C18_17  and  O7_18 
REMARK    5  A    between atoms: C17_20  and  O6_21 
REMARK    6  A    between atoms: C13_31  and  O4_32 
REMARK    7  A    between atoms: C10_36  and  N7_37 
ROOT
HETATM    1  C2  MIY  5181       0.071  36.227 236.028  1.00 20.00     0.116 C 
HETATM    2  C1  MIY  5181      -0.863  36.065 234.890  1.00 20.00     0.209 C 
HETATM    3  O1  MIY  5181      -1.461  37.038 234.477  1.00 20.00    -0.288 OA
HETATM    4  C3  MIY  5181       0.820  35.151 236.416  1.00 20.00     0.108 C 
HETATM    5  C4  MIY  5181       0.892  33.796 235.642  1.00 20.00     0.049 C 
HETATM    6  C5  MIY  5181       0.140  33.779 234.269  1.00 20.00     0.088 C 
HETATM    7  C18 MIY  5181      -1.119  34.662 234.284  1.00 20.00     0.180 C 
HETATM    8  C17 MIY  5181      -1.769  34.537 232.890  1.00 20.00     0.097 C 
HETATM    9  C16 MIY  5181      -1.187  34.088 231.752  1.00 20.00     0.030 C 
HETATM   10  C7  MIY  5181       0.235  33.599 231.704  1.00 20.00     0.030 C 
HETATM   11  C6  MIY  5181       0.991  33.990 232.995  1.00 20.00     0.024 C 
HETATM   12  C15 MIY  5181      -1.996  34.109 230.513  1.00 20.00     0.194 C 
HETATM   13  O5  MIY  5181      -3.214  34.338 230.468  1.00 20.00    -0.287 OA
HETATM   14  C14 MIY  5181      -1.312  33.967 229.208  1.00 20.00     0.056 A 
HETATM   15  C9  MIY  5181       0.077  34.045 229.150  1.00 20.00    -0.019 A 
HETATM   16  C8  MIY  5181       0.886  34.228 230.448  1.00 20.00     0.051 C 
HETATM   17  C13 MIY  5181      -2.119  33.809 228.086  1.00 20.00     0.080 A 
HETATM   18  C12 MIY  5181      -1.524  33.711 226.830  1.00 20.00     0.039 A 
HETATM   19  C11 MIY  5181      -0.134  33.789 226.743  1.00 20.00     0.027 A 
HETATM   20  C10 MIY  5181       0.669  33.952 227.884  1.00 20.00     0.017 A 
ENDROOT
BRANCH   1  21
HETATM   21  C21 MIY  5181       0.179  37.553 236.712  1.00 20.00     0.256 C 
HETATM   22  N2  MIY  5181      -1.003  38.136 237.014  1.00 20.00    -0.366 N 
ATOM     23  H22 MIY  5181      -1.905  37.719 236.784  1.00  0.00     0.159 HD
ATOM     24  H21 MIY  5181      -0.929  39.040 237.481  1.00  0.00     0.159 HD
HETATM   25  O8  MIY  5181       1.276  38.060 236.993  1.00 20.00    -0.268 OA
ENDBRANCH   1  21
BRANCH   4  26
HETATM   26  O2  MIY  5181       1.562  35.269 237.531  1.00 20.00    -0.358 OA
ATOM     27  H2  MIY  5181       1.612  36.123 237.944  1.00  0.00     0.218 HD
ENDBRANCH   4  26
BRANCH   7  28
HETATM   28  O7  MIY  5181      -2.083  34.036 235.144  1.00 20.00    -0.374 OA
ATOM     29  H7  MIY  5181      -2.896  34.023 234.654  1.00  0.00     0.211 HD
ENDBRANCH   7  28
BRANCH   5  30
HETATM   30  N1  MIY  5181       0.698  32.544 236.549  1.00 20.00    -0.390 N 
HETATM   31  C19 MIY  5181      -0.317  32.591 237.634  1.00 20.00     0.149 C 
HETATM   32  C20 MIY  5181       0.613  31.202 235.880  1.00 20.00     0.149 C 
ENDBRANCH   5  30
BRANCH   8  33
HETATM   33  O6  MIY  5181      -3.080  34.815 232.806  1.00 20.00    -0.361 OA
ATOM     34  H6  MIY  5181      -3.669  34.112 233.055  1.00  0.00     0.217 HD
ENDBRANCH   8  33
BRANCH  17  35
HETATM   35  O4  MIY  5181      -3.488  33.742 228.244  1.00 20.00    -0.360 OA
ATOM     36  H4  MIY  5181      -4.081  33.918 227.523  1.00  0.00     0.217 HD
ENDBRANCH  17  35
BRANCH  20  37
HETATM   37  N7  MIY  5181       2.044  34.076 227.716  1.00 20.00    -0.291 NA
HETATM   38  C71 MIY  5181       2.559  33.090 226.743  1.00 20.00     0.116 C 
HETATM   39  CN7 MIY  5181       2.182  35.393 227.082  1.00 20.00     0.116 C 
ENDBRANCH  20  37
TORSDOF 7
ENDMDL
MODEL 7
REMARK VINA RESULT:      -6.0      3.016      8.315
REMARK  7 active torsions:
REMARK  status: ('A' for Active; 'I' for Inactive)
REMARK    1  A    between atoms: C2_6  and  C21_2 
REMARK       I    between atoms: C21_2  and  N2_3 
REMARK    2  A    between atoms: C3_9  and  O2_10 
REMARK    3  A    between atoms: C4_12  and  N1_13 
REMARK    4  A    between atoms: C18_17  and  O7_18 
REMARK    5  A    between atoms: C17_20  and  O6_21 
REMARK    6  A    between atoms: C13_31  and  O4_32 
REMARK    7  A    between atoms: C10_36  and  N7_37 
ROOT
HETATM    1  C2  MIY  5181       1.055  32.691 227.765  1.00 20.00     0.116 C 
HETATM    2  C1  MIY  5181      -0.004  32.766 228.798  1.00 20.00     0.209 C 
HETATM    3  O1  MIY  5181      -0.602  31.752 229.102  1.00 20.00    -0.288 OA
HETATM    4  C3  MIY  5181       1.795  33.812 227.508  1.00 20.00     0.108 C 
HETATM    5  C4  MIY  5181       1.723  35.132 228.339  1.00 20.00     0.049 C 
HETATM    6  C5  MIY  5181       0.825  35.059 229.620  1.00 20.00     0.088 C 
HETATM    7  C18 MIY  5181      -0.386  34.129 229.428  1.00 20.00     0.180 C 
HETATM    8  C17 MIY  5181      -1.189  34.166 230.746  1.00 20.00     0.097 C 
HETATM    9  C16 MIY  5181      -0.755  34.585 231.958  1.00 20.00     0.030 C 
HETATM   10  C7  MIY  5181       0.630  35.126 232.185  1.00 20.00     0.030 C 
HETATM   11  C6  MIY  5181       1.540  34.823 230.970  1.00 20.00     0.024 C 
HETATM   12  C15 MIY  5181      -1.693  34.477 233.098  1.00 20.00     0.194 C 
HETATM   13  O5  MIY  5181      -2.897  34.200 232.998  1.00 20.00    -0.287 OA
HETATM   14  C14 MIY  5181      -1.163  34.587 234.476  1.00 20.00     0.056 A 
HETATM   15  C9  MIY  5181       0.213  34.560 234.684  1.00 20.00    -0.019 A 
HETATM   16  C8  MIY  5181       1.167  34.466 233.478  1.00 20.00     0.051 C 
HETATM   17  C13 MIY  5181      -2.094  34.662 235.507  1.00 20.00     0.080 A 
HETATM   18  C12 MIY  5181      -1.645  34.726 236.824  1.00 20.00     0.039 A 
HETATM   19  C11 MIY  5181      -0.271  34.698 237.061  1.00 20.00     0.027 A 
HETATM   20  C10 MIY  5181       0.658  34.617 236.012  1.00 20.00     0.017 A 
ENDROOT
BRANCH   1  21
HETATM   21  C21 MIY  5181       1.294  31.403 227.045  1.00 20.00     0.256 C 
HETATM   22  N2  MIY  5181       0.744  31.329 225.811  1.00 20.00    -0.366 N 
ATOM     23  H22 MIY  5181       0.193  32.083 225.401  1.00  0.00     0.159 HD
ATOM     24  H21 MIY  5181       0.907  30.451 225.320  1.00  0.00     0.159 HD
HETATM   25  O8  MIY  5181       1.964  30.485 227.544  1.00 20.00    -0.268 OA
ENDBRANCH   1  21
BRANCH   4  26
HETATM   26  O2  MIY  5181       2.659  33.773 226.478  1.00 20.00    -0.358 OA
ATOM     27  H2  MIY  5181       2.706  34.531 225.908  1.00  0.00     0.218 HD
ENDBRANCH   4  26
BRANCH   7  28
HETATM   28  O7  MIY  5181      -1.275  34.756 228.493  1.00 20.00    -0.374 OA
ATOM     29  H7  MIY  5181      -1.032  34.418 227.639  1.00  0.00     0.211 HD
ENDBRANCH   7  28
BRANCH   5  30
HETATM   30  N1  MIY  5181       1.575  36.416 227.467  1.00 20.00    -0.390 N 
HETATM   31  C19 MIY  5181       0.653  37.491 227.918  1.00 20.00     0.149 C 
HETATM   32  C20 MIY  5181       2.830  37.057 226.948  1.00 20.00     0.149 C 
ENDBRANCH   5  30
BRANCH   8  33
HETATM   33  O6  MIY  5181      -2.488  33.834 230.672  1.00 20.00    -0.361 OA
ATOM     34  H6  MIY  5181      -3.070  34.306 231.257  1.00  0.00     0.217 HD
ENDBRANCH   8  33
BRANCH  17  35
HETATM   35  O4  MIY  5181      -3.439  34.684 235.200  1.00 20.00    -0.360 OA
ATOM     36  H4  MIY  5181      -3.931  33.883 235.062  1.00  0.00     0.217 HD
ENDBRANCH  17  35
BRANCH  20  37
HETATM   37  N7  MIY  5181       2.011  34.540 236.326  1.00 20.00    -0.291 NA
HETATM   38  C71 MIY  5181       2.607  35.883 236.479  1.00 20.00     0.116 C 
HETATM   39  CN7 MIY  5181       2.004  33.936 237.665  1.00 20.00     0.116 C 
ENDBRANCH  20  37
TORSDOF 7
ENDMDL
MODEL 8
REMARK VINA RESULT:      -6.0      2.462      7.915
REMARK  7 active torsions:
REMARK  status: ('A' for Active; 'I' for Inactive)
REMARK    1  A    between atoms: C2_6  and  C21_2 
REMARK       I    between atoms: C21_2  and  N2_3 
REMARK    2  A    between atoms: C3_9  and  O2_10 
REMARK    3  A    between atoms: C4_12  and  N1_13 
REMARK    4  A    between atoms: C18_17  and  O7_18 
REMARK    5  A    between atoms: C17_20  and  O6_21 
REMARK    6  A    between atoms: C13_31  and  O4_32 
REMARK    7  A    between atoms: C10_36  and  N7_37 
ROOT
HETATM    1  C2  MIY  5181      -2.616  33.545 231.765  1.00 20.00     0.116 C 
HETATM    2  C1  MIY  5181      -2.139  34.404 232.874  1.00 20.00     0.209 C 
HETATM    3  O1  MIY  5181      -2.896  34.654 233.792  1.00 20.00    -0.288 OA
HETATM    4  C3  MIY  5181      -1.726  33.182 230.793  1.00 20.00     0.108 C 
HETATM    5  C4  MIY  5181      -0.191  33.466 230.845  1.00 20.00     0.049 C 
HETATM    6  C5  MIY  5181       0.320  34.092 232.186  1.00 20.00     0.088 C 
HETATM    7  C18 MIY  5181      -0.721  35.027 232.826  1.00 20.00     0.180 C 
HETATM    8  C17 MIY  5181      -0.085  35.586 234.116  1.00 20.00     0.097 C 
HETATM    9  C16 MIY  5181       0.981  35.088 234.786  1.00 20.00     0.030 C 
HETATM   10  C7  MIY  5181       1.743  33.878 234.320  1.00 20.00     0.030 C 
HETATM   11  C6  MIY  5181       0.959  33.130 233.216  1.00 20.00     0.024 C 
HETATM   12  C15 MIY  5181       1.381  35.766 236.039  1.00 20.00     0.194 C 
HETATM   13  O5  MIY  5181       0.930  36.853 236.430  1.00 20.00    -0.287 OA
HETATM   14  C14 MIY  5181       2.294  35.068 236.973  1.00 20.00     0.056 A 
HETATM   15  C9  MIY  5181       2.576  33.719 236.774  1.00 20.00    -0.019 A 
HETATM   16  C8  MIY  5181       1.974  32.984 235.561  1.00 20.00     0.051 C 
HETATM   17  C13 MIY  5181       2.788  35.804 238.044  1.00 20.00     0.080 A 
HETATM   18  C12 MIY  5181       3.620  35.181 238.971  1.00 20.00     0.039 A 
HETATM   19  C11 MIY  5181       3.916  33.829 238.798  1.00 20.00     0.027 A 
HETATM   20  C10 MIY  5181       3.407  33.095 237.715  1.00 20.00     0.017 A 
ENDROOT
BRANCH   1  21
HETATM   21  C21 MIY  5181      -4.041  33.093 231.742  1.00 20.00     0.256 C 
HETATM   22  N2  MIY  5181      -4.406  32.303 232.776  1.00 20.00    -0.366 N 
ATOM     23  H22 MIY  5181      -3.762  32.019 233.515  1.00  0.00     0.159 HD
ATOM     24  H21 MIY  5181      -5.378  31.995 232.760  1.00  0.00     0.159 HD
HETATM   25  O8  MIY  5181      -4.825  33.439 230.844  1.00 20.00    -0.268 OA
ENDBRANCH   1  21
BRANCH   4  26
HETATM   26  O2  MIY  5181      -2.198  32.517 229.724  1.00 20.00    -0.358 OA
ATOM     27  H2  MIY  5181      -2.484  31.620 229.848  1.00  0.00     0.218 HD
ENDBRANCH   4  26
BRANCH   7  28
HETATM   28  O7  MIY  5181      -0.834  36.190 231.993  1.00 20.00    -0.374 OA
ATOM     29  H7  MIY  5181      -1.090  36.898 232.573  1.00  0.00     0.211 HD
ENDBRANCH   7  28
BRANCH   5  30
HETATM   30  N1  MIY  5181       0.377  34.089 229.534  1.00 20.00    -0.390 N 
HETATM   31  C19 MIY  5181       1.451  35.112 229.629  1.00 20.00     0.149 C 
HETATM   32  C20 MIY  5181       0.711  33.157 228.405  1.00 20.00     0.149 C 
ENDBRANCH   5  30
BRANCH   8  33
HETATM   33  O6  MIY  5181      -0.580  36.744 234.582  1.00 20.00    -0.361 OA
ATOM     34  H6  MIY  5181       0.058  37.358 234.925  1.00  0.00     0.217 HD
ENDBRANCH   8  33
BRANCH  17  35
HETATM   35  O4  MIY  5181       2.453  37.139 238.155  1.00 20.00    -0.360 OA
ATOM     36  H4  MIY  5181       2.165  37.643 237.403  1.00  0.00     0.217 HD
ENDBRANCH  17  35
BRANCH  20  37
HETATM   37  N7  MIY  5181       3.701  31.738 237.635  1.00 20.00    -0.291 NA
HETATM   38  C71 MIY  5181       5.159  31.504 237.583  1.00 20.00     0.116 C 
HETATM   39  CN7 MIY  5181       3.246  31.226 238.934  1.00 20.00     0.116 C 
ENDBRANCH  20  37
TORSDOF 7
ENDMDL
MODEL 9
REMARK VINA RESULT:      -6.0      3.016      7.877
REMARK  7 active torsions:
REMARK  status: ('A' for Active; 'I' for Inactive)
REMARK    1  A    between atoms: C2_6  and  C21_2 
REMARK       I    between atoms: C21_2  and  N2_3 
REMARK    2  A    between atoms: C3_9  and  O2_10 
REMARK    3  A    between atoms: C4_12  and  N1_13 
REMARK    4  A    between atoms: C18_17  and  O7_18 
REMARK    5  A    between atoms: C17_20  and  O6_21 
REMARK    6  A    between atoms: C13_31  and  O4_32 
REMARK    7  A    between atoms: C10_36  and  N7_37 
ROOT
HETATM    1  C2  MIY  5181      -1.292  35.822 230.541  1.00 20.00     0.116 C 
HETATM    2  C1  MIY  5181      -0.329  34.775 230.954  1.00 20.00     0.209 C 
HETATM    3  O1  MIY  5181       0.706  34.648 230.330  1.00 20.00    -0.288 OA
HETATM    4  C3  MIY  5181      -2.401  36.029 231.313  1.00 20.00     0.108 C 
HETATM    5  C4  MIY  5181      -2.655  35.357 232.700  1.00 20.00     0.049 C 
HETATM    6  C5  MIY  5181      -1.461  34.504 233.249  1.00 20.00     0.088 C 
HETATM    7  C18 MIY  5181      -0.672  33.815 232.122  1.00 20.00     0.180 C 
HETATM    8  C17 MIY  5181       0.450  32.999 232.798  1.00 20.00     0.097 C 
HETATM    9  C16 MIY  5181       0.923  33.144 234.058  1.00 20.00     0.030 C 
HETATM   10  C7  MIY  5181       0.367  34.154 235.025  1.00 20.00     0.030 C 
HETATM   11  C6  MIY  5181      -0.536  35.174 234.291  1.00 20.00     0.024 C 
HETATM   12  C15 MIY  5181       2.049  32.278 234.473  1.00 20.00     0.194 C 
HETATM   13  O5  MIY  5181       2.476  31.314 233.821  1.00 20.00    -0.287 OA
HETATM   14  C14 MIY  5181       2.817  32.633 235.688  1.00 20.00     0.056 A 
HETATM   15  C9  MIY  5181       2.621  33.876 236.283  1.00 20.00    -0.019 A 
HETATM   16  C8  MIY  5181       1.575  34.846 235.701  1.00 20.00     0.051 C 
HETATM   17  C13 MIY  5181       3.744  31.702 236.144  1.00 20.00     0.080 A 
HETATM   18  C12 MIY  5181       4.519  32.006 237.261  1.00 20.00     0.039 A 
HETATM   19  C11 MIY  5181       4.346  33.246 237.875  1.00 20.00     0.027 A 
HETATM   20  C10 MIY  5181       3.409  34.179 237.402  1.00 20.00     0.017 A 
ENDROOT
BRANCH   1  21
HETATM   21  C21 MIY  5181      -1.025  36.625 229.309  1.00 20.00     0.256 C 
HETATM   22  N2  MIY  5181      -0.682  35.902 228.219  1.00 20.00    -0.366 N 
ATOM     23  H22 MIY  5181      -0.594  34.885 228.230  1.00  0.00     0.159 HD
ATOM     24  H21 MIY  5181      -0.500  36.450 227.379  1.00  0.00     0.159 HD
HETATM   25  O8  MIY  5181      -1.131  37.862 229.295  1.00 20.00    -0.268 OA
ENDBRANCH   1  21
BRANCH   4  26
HETATM   26  O2  MIY  5181      -3.334  36.885 230.858  1.00 20.00    -0.358 OA
ATOM     27  H2  MIY  5181      -4.166  36.919 231.315  1.00  0.00     0.218 HD
ENDBRANCH   4  26
BRANCH   7  28
HETATM   28  O7  MIY  5181      -1.512  32.798 231.557  1.00 20.00    -0.374 OA
ATOM     29  H7  MIY  5181      -1.638  33.043 230.648  1.00  0.00     0.211 HD
ENDBRANCH   7  28
BRANCH   5  30
HETATM   30  N1  MIY  5181      -4.073  34.727 232.842  1.00 20.00    -0.390 N 
HETATM   31  C19 MIY  5181      -4.614  33.908 231.726  1.00 20.00     0.149 C 
HETATM   32  C20 MIY  5181      -4.407  34.041 234.136  1.00 20.00     0.149 C 
ENDBRANCH   5  30
BRANCH   8  33
HETATM   33  O6  MIY  5181       0.956  31.971 232.098  1.00 20.00    -0.361 OA
ATOM     34  H6  MIY  5181       1.565  32.201 231.406  1.00  0.00     0.217 HD
ENDBRANCH   8  33
BRANCH  17  35
HETATM   35  O4  MIY  5181       3.865  30.494 235.487  1.00 20.00    -0.360 OA
ATOM     36  H4  MIY  5181       4.658  29.973 235.546  1.00  0.00     0.217 HD
ENDBRANCH  17  35
BRANCH  20  37
HETATM   37  N7  MIY  5181       3.328  35.416 238.031  1.00 20.00    -0.291 NA
HETATM   38  C71 MIY  5181       3.897  35.366 239.394  1.00 20.00     0.116 C 
HETATM   39  CN7 MIY  5181       4.236  36.252 237.235  1.00 20.00     0.116 C 
ENDBRANCH  20  37
TORSDOF 7
ENDMDL
