MODEL 1
REMARK VINA RESULT:      -5.7      0.000      0.000
REMARK  3 active torsions:
REMARK  status: ('A' for Active; 'I' for Inactive)
REMARK    1  A    between atoms: C3_4  and  C7_2 
REMARK    2  A    between atoms: C2_9  and  O3_10 
REMARK    3  A    between atoms: C8_11  and  O3_10 
ROOT
HETATM    1  C3  AIN  1536      -1.861  40.535 227.263  1.00 20.00     0.074 A 
HETATM    2  C4  AIN  1536      -2.826  39.567 227.012  1.00 20.00     0.021 A 
HETATM    3  C5  AIN  1536      -3.388  39.454 225.747  1.00 20.00     0.001 A 
HETATM    4  C6  AIN  1536      -2.997  40.301 224.715  1.00 20.00     0.003 A 
HETATM    5  C1  AIN  1536      -2.032  41.288 224.916  1.00 20.00     0.038 A 
HETATM    6  C2  AIN  1536      -1.451  41.456 226.169  1.00 20.00     0.096 A 
ENDROOT
BRANCH   6   7
HETATM    7  O3  AIN  1536      -0.460  42.389 226.385  1.00 20.00    -0.278 OA
BRANCH   7   8
HETATM    8  C8  AIN  1536       0.957  42.255 226.702  1.00 20.00     0.260 C 
HETATM    9  C9  AIN  1536       1.766  41.038 226.377  1.00 20.00     0.126 C 
HETATM   10  O4  AIN  1536       1.509  43.202 227.227  1.00 20.00    -0.265 OA
ENDBRANCH   7   8
ENDBRANCH   6   7
BRANCH   1  11
HETATM   11  C7  AIN  1536      -1.267  40.640 228.641  1.00 20.00     0.212 C 
HETATM   12  O1  AIN  1536      -1.085  41.737 229.145  1.00 20.00    -0.644 OA
HETATM   13  O2  AIN  1536      -0.971  39.639 229.271  1.00 20.00    -0.644 OA
ENDBRANCH   1  11
TORSDOF 3
ENDMDL
MODEL 2
REMARK VINA RESULT:      -5.6      2.317      3.187
REMARK  3 active torsions:
REMARK  status: ('A' for Active; 'I' for Inactive)
REMARK    1  A    between atoms: C3_4  and  C7_2 
REMARK    2  A    between atoms: C2_9  and  O3_10 
REMARK    3  A    between atoms: C8_11  and  O3_10 
ROOT
HETATM    1  C3  AIN  1536      -0.111  39.900 227.910  1.00 20.00     0.074 A 
HETATM    2  C4  AIN  1536      -0.508  38.617 228.265  1.00 20.00     0.021 A 
HETATM    3  C5  AIN  1536       0.333  37.536 228.034  1.00 20.00     0.001 A 
HETATM    4  C6  AIN  1536       1.581  37.717 227.447  1.00 20.00     0.003 A 
HETATM    5  C1  AIN  1536       2.027  38.985 227.073  1.00 20.00     0.038 A 
HETATM    6  C2  AIN  1536       1.216  40.099 227.265  1.00 20.00     0.096 A 
ENDROOT
BRANCH   6   7
HETATM    7  O3  AIN  1536       1.648  41.369 226.951  1.00 20.00    -0.278 OA
BRANCH   7   8
HETATM    8  C8  AIN  1536       2.252  42.423 227.757  1.00 20.00     0.260 C 
HETATM    9  C9  AIN  1536       3.500  42.237 228.563  1.00 20.00     0.126 C 
HETATM   10  O4  AIN  1536       1.725  43.519 227.739  1.00 20.00    -0.265 OA
ENDBRANCH   7   8
ENDBRANCH   6   7
BRANCH   1  11
HETATM   11  C7  AIN  1536      -1.039  41.055 228.168  1.00 20.00     0.212 C 
HETATM   12  O1  AIN  1536      -0.844  41.793 229.121  1.00 20.00    -0.644 OA
HETATM   13  O2  AIN  1536      -1.984  41.274 227.430  1.00 20.00    -0.644 OA
ENDBRANCH   1  11
TORSDOF 3
ENDMDL
MODEL 3
REMARK VINA RESULT:      -5.6      2.699      4.860
REMARK  3 active torsions:
REMARK  status: ('A' for Active; 'I' for Inactive)
REMARK    1  A    between atoms: C3_4  and  C7_2 
REMARK    2  A    between atoms: C2_9  and  O3_10 
REMARK    3  A    between atoms: C8_11  and  O3_10 
ROOT
HETATM    1  C3  AIN  1536       1.037  41.178 228.261  1.00 20.00     0.074 A 
HETATM    2  C4  AIN  1536       1.643  42.325 228.759  1.00 20.00     0.021 A 
HETATM    3  C5  AIN  1536       3.015  42.497 228.641  1.00 20.00     0.001 A 
HETATM    4  C6  AIN  1536       3.805  41.531 228.025  1.00 20.00     0.003 A 
HETATM    5  C1  AIN  1536       3.246  40.363 227.508  1.00 20.00     0.038 A 
HETATM    6  C2  AIN  1536       1.878  40.132 227.617  1.00 20.00     0.096 A 
ENDROOT
BRANCH   6   7
HETATM    7  O3  AIN  1536       1.290  39.011 227.073  1.00 20.00    -0.278 OA
BRANCH   7   8
HETATM    8  C8  AIN  1536       1.366  37.598 227.425  1.00 20.00     0.260 C 
HETATM    9  C9  AIN  1536       2.469  36.691 226.976  1.00 20.00     0.126 C 
HETATM   10  O4  AIN  1536       0.500  37.151 228.152  1.00 20.00    -0.265 OA
ENDBRANCH   7   8
ENDBRANCH   6   7
BRANCH   1  11
HETATM   11  C7  AIN  1536      -0.451  41.012 228.401  1.00 20.00     0.212 C 
HETATM   12  O1  AIN  1536      -1.206  41.680 227.712  1.00 20.00    -0.644 OA
HETATM   13  O2  AIN  1536      -0.918  40.209 229.189  1.00 20.00    -0.644 OA
ENDBRANCH   1  11
TORSDOF 3
ENDMDL
MODEL 4
REMARK VINA RESULT:      -5.5      1.785      4.444
REMARK  3 active torsions:
REMARK  status: ('A' for Active; 'I' for Inactive)
REMARK    1  A    between atoms: C3_4  and  C7_2 
REMARK    2  A    between atoms: C2_9  and  O3_10 
REMARK    3  A    between atoms: C8_11  and  O3_10 
ROOT
HETATM    1  C3  AIN  1536       1.704  41.194 228.045  1.00 20.00     0.074 A 
HETATM    2  C4  AIN  1536       3.051  40.953 227.803  1.00 20.00     0.021 A 
HETATM    3  C5  AIN  1536       3.464  39.718 227.319  1.00 20.00     0.001 A 
HETATM    4  C6  AIN  1536       2.542  38.706 227.069  1.00 20.00     0.003 A 
HETATM    5  C1  AIN  1536       1.180  38.898 227.296  1.00 20.00     0.038 A 
HETATM    6  C2  AIN  1536       0.715  40.109 227.797  1.00 20.00     0.096 A 
ENDROOT
BRANCH   6   7
HETATM    7  O3  AIN  1536      -0.630  40.345 227.985  1.00 20.00    -0.278 OA
BRANCH   7   8
HETATM    8  C8  AIN  1536      -1.673  40.825 227.087  1.00 20.00     0.260 C 
HETATM    9  C9  AIN  1536      -2.743  39.947 226.516  1.00 20.00     0.126 C 
HETATM   10  O4  AIN  1536      -1.685  42.011 226.820  1.00 20.00    -0.265 OA
ENDBRANCH   7   8
ENDBRANCH   6   7
BRANCH   1  11
HETATM   11  C7  AIN  1536       1.281  42.537 228.570  1.00 20.00     0.212 C 
HETATM   12  O1  AIN  1536       0.691  42.618 229.636  1.00 20.00    -0.644 OA
HETATM   13  O2  AIN  1536       1.527  43.557 227.948  1.00 20.00    -0.644 OA
ENDBRANCH   1  11
TORSDOF 3
ENDMDL
MODEL 5
REMARK VINA RESULT:      -5.3      1.609      2.401
REMARK  3 active torsions:
REMARK  status: ('A' for Active; 'I' for Inactive)
REMARK    1  A    between atoms: C3_4  and  C7_2 
REMARK    2  A    between atoms: C2_9  and  O3_10 
REMARK    3  A    between atoms: C8_11  and  O3_10 
ROOT
HETATM    1  C3  AIN  1536      -3.095  39.285 226.973  1.00 20.00     0.074 A 
HETATM    2  C4  AIN  1536      -3.691  38.889 225.782  1.00 20.00     0.021 A 
HETATM    3  C5  AIN  1536      -3.670  39.730 224.677  1.00 20.00     0.001 A 
HETATM    4  C6  AIN  1536      -3.054  40.976 224.741  1.00 20.00     0.003 A 
HETATM    5  C1  AIN  1536      -2.441  41.419 225.913  1.00 20.00     0.038 A 
HETATM    6  C2  AIN  1536      -2.449  40.624 227.054  1.00 20.00     0.096 A 
ENDROOT
BRANCH   6   7
HETATM    7  O3  AIN  1536      -1.809  41.014 228.210  1.00 20.00    -0.278 OA
BRANCH   7   8
HETATM    8  C8  AIN  1536      -0.403  41.243 228.520  1.00 20.00     0.260 C 
HETATM    9  C9  AIN  1536       0.710  40.393 227.991  1.00 20.00     0.126 C 
HETATM   10  O4  AIN  1536      -0.128  42.199 229.219  1.00 20.00    -0.265 OA
ENDBRANCH   7   8
ENDBRANCH   6   7
BRANCH   1  11
HETATM   11  C7  AIN  1536      -3.131  38.359 228.157  1.00 20.00     0.212 C 
HETATM   12  O1  AIN  1536      -2.118  37.770 228.502  1.00 20.00    -0.644 OA
HETATM   13  O2  AIN  1536      -4.160  38.192 228.788  1.00 20.00    -0.644 OA
ENDBRANCH   1  11
TORSDOF 3
ENDMDL
MODEL 6
REMARK VINA RESULT:      -5.2     10.388     12.675
REMARK  3 active torsions:
REMARK  status: ('A' for Active; 'I' for Inactive)
REMARK    1  A    between atoms: C3_4  and  C7_2 
REMARK    2  A    between atoms: C2_9  and  O3_10 
REMARK    3  A    between atoms: C8_11  and  O3_10 
ROOT
HETATM    1  C3  AIN  1536       2.677  36.892 237.200  1.00 20.00     0.074 A 
HETATM    2  C4  AIN  1536       3.785  37.618 237.620  1.00 20.00     0.021 A 
HETATM    3  C5  AIN  1536       4.664  37.076 238.549  1.00 20.00     0.001 A 
HETATM    4  C6  AIN  1536       4.453  35.805 239.072  1.00 20.00     0.003 A 
HETATM    5  C1  AIN  1536       3.357  35.036 238.683  1.00 20.00     0.038 A 
HETATM    6  C2  AIN  1536       2.436  35.538 237.769  1.00 20.00     0.096 A 
ENDROOT
BRANCH   6   7
HETATM    7  O3  AIN  1536       1.371  34.783 237.328  1.00 20.00    -0.278 OA
BRANCH   7   8
HETATM    8  C8  AIN  1536       1.166  33.992 236.121  1.00 20.00     0.260 C 
HETATM    9  C9  AIN  1536       2.274  33.587 235.199  1.00 20.00     0.126 C 
HETATM   10  O4  AIN  1536       0.035  33.619 235.876  1.00 20.00    -0.265 OA
ENDBRANCH   7   8
ENDBRANCH   6   7
BRANCH   1  11
HETATM   11  C7  AIN  1536       1.739  37.499 236.194  1.00 20.00     0.212 C 
HETATM   12  O1  AIN  1536       1.937  37.338 235.000  1.00 20.00    -0.644 OA
HETATM   13  O2  AIN  1536       0.771  38.146 236.555  1.00 20.00    -0.644 OA
ENDBRANCH   1  11
TORSDOF 3
ENDMDL
MODEL 7
REMARK VINA RESULT:      -5.2     11.405     13.194
REMARK  3 active torsions:
REMARK  status: ('A' for Active; 'I' for Inactive)
REMARK    1  A    between atoms: C3_4  and  C7_2 
REMARK    2  A    between atoms: C2_9  and  O3_10 
REMARK    3  A    between atoms: C8_11  and  O3_10 
ROOT
HETATM    1  C3  AIN  1536       2.404  36.730 237.610  1.00 20.00     0.074 A 
HETATM    2  C4  AIN  1536       1.449  37.677 237.262  1.00 20.00     0.021 A 
HETATM    3  C5  AIN  1536       0.205  37.275 236.794  1.00 20.00     0.001 A 
HETATM    4  C6  AIN  1536      -0.106  35.925 236.665  1.00 20.00     0.003 A 
HETATM    5  C1  AIN  1536       0.818  34.936 237.001  1.00 20.00     0.038 A 
HETATM    6  C2  AIN  1536       2.085  35.285 237.458  1.00 20.00     0.096 A 
ENDROOT
BRANCH   6   7
HETATM    7  O3  AIN  1536       3.001  34.330 237.844  1.00 20.00    -0.278 OA
BRANCH   7   8
HETATM    8  C8  AIN  1536       3.349  33.780 239.148  1.00 20.00     0.260 C 
HETATM    9  C9  AIN  1536       4.690  33.955 239.789  1.00 20.00     0.126 C 
HETATM   10  O4  AIN  1536       2.484  33.176 239.755  1.00 20.00    -0.265 OA
ENDBRANCH   7   8
ENDBRANCH   6   7
BRANCH   1  11
HETATM   11  C7  AIN  1536       3.744  37.189 238.114  1.00 20.00     0.212 C 
HETATM   12  O1  AIN  1536       3.902  37.424 239.302  1.00 20.00    -0.644 OA
HETATM   13  O2  AIN  1536       4.687  37.321 237.351  1.00 20.00    -0.644 OA
ENDBRANCH   1  11
TORSDOF 3
ENDMDL
MODEL 8
REMARK VINA RESULT:      -5.1      1.924      3.716
REMARK  3 active torsions:
REMARK  status: ('A' for Active; 'I' for Inactive)
REMARK    1  A    between atoms: C3_4  and  C7_2 
REMARK    2  A    between atoms: C2_9  and  O3_10 
REMARK    3  A    between atoms: C8_11  and  O3_10 
ROOT
HETATM    1  C3  AIN  1536      -1.142  40.863 227.466  1.00 20.00     0.074 A 
HETATM    2  C4  AIN  1536      -1.374  41.590 226.305  1.00 20.00     0.021 A 
HETATM    3  C5  AIN  1536      -2.387  41.211 225.434  1.00 20.00     0.001 A 
HETATM    4  C6  AIN  1536      -3.184  40.104 225.707  1.00 20.00     0.003 A 
HETATM    5  C1  AIN  1536      -2.992  39.342 226.859  1.00 20.00     0.038 A 
HETATM    6  C2  AIN  1536      -1.980  39.667 227.756  1.00 20.00     0.096 A 
ENDROOT
BRANCH   6   7
HETATM    7  O3  AIN  1536      -1.798  38.963 228.926  1.00 20.00    -0.278 OA
BRANCH   7   8
HETATM    8  C8  AIN  1536      -1.370  37.594 229.187  1.00 20.00     0.260 C 
HETATM    9  C9  AIN  1536      -1.968  36.730 230.253  1.00 20.00     0.126 C 
HETATM   10  O4  AIN  1536      -0.504  37.128 228.473  1.00 20.00    -0.265 OA
ENDBRANCH   7   8
ENDBRANCH   6   7
BRANCH   1  11
HETATM   11  C7  AIN  1536      -0.039  41.292 228.394  1.00 20.00     0.212 C 
HETATM   12  O1  AIN  1536      -0.230  42.197 229.191  1.00 20.00    -0.644 OA
HETATM   13  O2  AIN  1536       1.047  40.739 228.370  1.00 20.00    -0.644 OA
ENDBRANCH   1  11
TORSDOF 3
ENDMDL
MODEL 9
REMARK VINA RESULT:      -5.1      2.219      4.678
REMARK  3 active torsions:
REMARK  status: ('A' for Active; 'I' for Inactive)
REMARK    1  A    between atoms: C3_4  and  C7_2 
REMARK    2  A    between atoms: C2_9  and  O3_10 
REMARK    3  A    between atoms: C8_11  and  O3_10 
ROOT
HETATM    1  C3  AIN  1536       0.101  39.942 227.889  1.00 20.00     0.074 A 
HETATM    2  C4  AIN  1536       1.390  39.807 227.390  1.00 20.00     0.021 A 
HETATM    3  C5  AIN  1536       1.955  38.546 227.246  1.00 20.00     0.001 A 
HETATM    4  C6  AIN  1536       1.244  37.402 227.596  1.00 20.00     0.003 A 
HETATM    5  C1  AIN  1536      -0.053  37.485 228.101  1.00 20.00     0.038 A 
HETATM    6  C2  AIN  1536      -0.659  38.724 228.282  1.00 20.00     0.096 A 
ENDROOT
BRANCH   6   7
HETATM    7  O3  AIN  1536      -1.957  38.834 228.733  1.00 20.00    -0.278 OA
BRANCH   7   8
HETATM    8  C8  AIN  1536      -3.241  38.681 228.060  1.00 20.00     0.260 C 
HETATM    9  C9  AIN  1536      -3.469  39.028 226.622  1.00 20.00     0.126 C 
HETATM   10  O4  AIN  1536      -4.162  38.214 228.703  1.00 20.00    -0.265 OA
ENDBRANCH   7   8
ENDBRANCH   6   7
BRANCH   1  11
HETATM   11  C7  AIN  1536      -0.490  41.317 228.037  1.00 20.00     0.212 C 
HETATM   12  O1  AIN  1536      -1.085  41.829 227.102  1.00 20.00    -0.644 OA
HETATM   13  O2  AIN  1536      -0.392  41.929 229.087  1.00 20.00    -0.644 OA
ENDBRANCH   1  11
TORSDOF 3
ENDMDL
