MODEL 1
REMARK VINA RESULT:      -7.3      0.000      0.000
REMARK  9 active torsions:
REMARK  status: ('A' for Active; 'I' for Inactive)
REMARK    1  A    between atoms: C10_14  and  O6_16 
REMARK    2  A    between atoms: C16_23  and  O7_24 
REMARK    3  A    between atoms: C27_36  and  O9_37 
REMARK    4  A    between atoms: C28_38  and  O10_39 
REMARK    5  A    between atoms: C34_47  and  C35_48 
REMARK    6  A    between atoms: C35_48  and  C36_49 
REMARK    7  A    between atoms: C36_49  and  C37_50 
REMARK    8  A    between atoms: C39_52  and  O12_53 
REMARK    9  A    between atoms: C40_54  and  O13_55 
ROOT
HETATM    1  C1  RAP  6544      -3.808  36.167 227.531  1.00 20.00     0.282 C 
HETATM    2  O1  RAP  6544      -2.499  35.732 227.874  1.00 20.00    -0.314 OA
HETATM    3  O2  RAP  6544      -4.298  37.090 228.178  1.00 20.00    -0.263 OA
HETATM    4  C2  RAP  6544      -4.592  35.551 226.372  1.00 20.00     0.187 C 
HETATM    5  C3  RAP  6544      -6.040  35.297 226.764  1.00 20.00     0.035 C 
HETATM    6  C4  RAP  6544      -6.223  34.094 227.677  1.00 20.00     0.004 C 
HETATM    7  C5  RAP  6544      -5.598  32.887 227.002  1.00 20.00     0.020 C 
HETATM    8  C6  RAP  6544      -4.147  33.127 226.719  1.00 20.00     0.127 C 
HETATM    9  N7  RAP  6544      -4.049  34.299 225.835  1.00 20.00    -0.331 N 
HETATM   10  C8  RAP  6544      -3.352  34.297 224.688  1.00 20.00     0.296 C 
HETATM   11  O3  RAP  6544      -3.251  35.360 224.060  1.00 20.00    -0.264 OA
HETATM   12  C9  RAP  6544      -2.799  33.126 224.127  1.00 20.00     0.278 C 
HETATM   13  O4  RAP  6544      -3.501  32.422 223.390  1.00 20.00    -0.281 OA
HETATM   14  C10 RAP  6544      -1.346  32.690 224.393  1.00 20.00     0.238 C 
HETATM   15  O5  RAP  6544      -1.351  32.148 225.694  1.00 20.00    -0.343 OA
HETATM   16  C11 RAP  6544      -0.310  33.885 224.332  1.00 20.00     0.053 C 
HETATM   17  C12 RAP  6544       1.062  33.466 224.908  1.00 20.00     0.013 C 
HETATM   18  C13 RAP  6544       0.888  32.791 226.261  1.00 20.00     0.033 C 
HETATM   19  C14 RAP  6544      -0.176  31.698 226.263  1.00 20.00     0.128 C 
HETATM   20  C15 RAP  6544      -0.546  31.346 227.694  1.00 20.00     0.068 C 
HETATM   21  C16 RAP  6544       0.510  30.611 228.512  1.00 20.00     0.152 C 
HETATM   22  C17 RAP  6544       0.032  30.354 229.925  1.00 20.00    -0.055 C 
HETATM   23  C18 RAP  6544       0.648  30.973 230.923  1.00 20.00     0.005 C 
HETATM   24  C19 RAP  6544       0.282  30.848 232.341  1.00 20.00     0.000 C 
HETATM   25  C20 RAP  6544       1.010  31.477 233.253  1.00 20.00    -0.000 C 
HETATM   26  C21 RAP  6544       0.628  31.468 234.677  1.00 20.00    -0.004 C 
HETATM   27  C22 RAP  6544       1.218  32.249 235.561  1.00 20.00    -0.022 C 
HETATM   28  C23 RAP  6544       0.796  32.364 237.011  1.00 20.00     0.005 C 
HETATM   29  C24 RAP  6544       0.506  33.832 237.265  1.00 20.00     0.020 C 
HETATM   30  C25 RAP  6544      -0.461  34.523 236.321  1.00 20.00     0.055 C 
HETATM   31  C26 RAP  6544      -0.288  36.034 236.379  1.00 20.00     0.162 C 
HETATM   32  O8  RAP  6544      -0.879  36.716 237.213  1.00 20.00    -0.295 OA
HETATM   33  C27 RAP  6544       0.644  36.657 235.345  1.00 20.00     0.223 C 
HETATM   34  C28 RAP  6544      -0.044  36.932 233.970  1.00 20.00     0.183 C 
HETATM   35  C29 RAP  6544      -0.129  35.690 233.063  1.00 20.00    -0.056 C 
HETATM   36  C30 RAP  6544      -1.276  35.074 232.778  1.00 20.00    -0.010 C 
HETATM   37  C31 RAP  6544      -1.541  33.865 231.869  1.00 20.00     0.074 C 
HETATM   38  C32 RAP  6544      -2.137  34.340 230.544  1.00 20.00     0.136 C 
HETATM   39  O11 RAP  6544      -3.341  34.233 230.290  1.00 20.00    -0.297 OA
HETATM   40  C33 RAP  6544      -1.161  35.008 229.583  1.00 20.00     0.112 C 
HETATM   41  C34 RAP  6544      -1.752  36.238 228.924  1.00 20.00     0.142 C 
HETATM   42  C43 RAP  6544      -0.139  34.545 222.932  1.00 20.00     0.016 C 
HETATM   43  C44 RAP  6544      -1.129  29.354 230.065  1.00 20.00     0.046 C 
HETATM   44  C45 RAP  6544       1.892  31.862 237.939  1.00 20.00     0.014 C 
HETATM   45  C46 RAP  6544      -1.912  34.128 236.610  1.00 20.00     0.018 C 
HETATM   46  C47 RAP  6544       1.211  35.214 232.531  1.00 20.00     0.046 C 
HETATM   47  C48 RAP  6544      -2.529  32.921 232.574  1.00 20.00     0.022 C 
ENDROOT
BRANCH  41  48
HETATM   48  C35 RAP  6544      -0.791  37.269 228.299  1.00 20.00     0.012 C 
HETATM   49  C49 RAP  6544       0.570  36.691 228.037  1.00 20.00     0.012 C 
BRANCH  48  50
HETATM   50  C36 RAP  6544      -0.681  38.538 229.141  1.00 20.00     0.011 C 
BRANCH  50  51
HETATM   51  C37 RAP  6544      -0.660  39.875 228.397  1.00 20.00    -0.012 C 
HETATM   52  C42 RAP  6544      -1.113  39.821 226.938  1.00 20.00     0.007 C 
HETATM   53  C41 RAP  6544      -1.113  41.193 226.278  1.00 20.00     0.035 C 
HETATM   54  C40 RAP  6544       0.267  41.868 226.411  1.00 20.00     0.147 C 
HETATM   55  C39 RAP  6544       0.792  41.914 227.888  1.00 20.00     0.150 C 
HETATM   56  C38 RAP  6544       0.729  40.517 228.509  1.00 20.00     0.039 C 
BRANCH  54  57
HETATM   57  O13 RAP  6544       0.187  43.198 225.903  1.00 20.00    -0.393 OA
ATOM     58  H13 RAP  6544       1.059  43.574 225.877  1.00  0.00     0.210 HD
ENDBRANCH  54  57
BRANCH  55  59
HETATM   59  O12 RAP  6544       2.142  42.302 227.916  1.00 20.00    -0.388 OA
HETATM   60  C52 RAP  6544       3.079  41.319 227.637  1.00 20.00     0.202 C 
ENDBRANCH  55  59
ENDBRANCH  50  51
ENDBRANCH  48  50
ENDBRANCH  41  48
BRANCH  34  61
HETATM   61  O10 RAP  6544      -1.363  37.428 234.239  1.00 20.00    -0.388 OA
ATOM     62  H10 RAP  6544      -1.285  38.103 234.902  1.00  0.00     0.210 HD
ENDBRANCH  34  61
BRANCH  33  63
HETATM   63  O9  RAP  6544       1.086  37.897 235.829  1.00 20.00    -0.380 OA
HETATM   64  C51 RAP  6544       2.093  37.844 236.779  1.00 20.00     0.202 C 
ENDBRANCH  33  63
BRANCH  14  65
HETATM   65  O6  RAP  6544      -0.976  31.704 223.425  1.00 20.00    -0.359 OA
ATOM     66  H6  RAP  6544      -1.756  31.426 222.959  1.00  0.00     0.213 HD
ENDBRANCH  14  65
BRANCH  21  67
HETATM   67  O7  RAP  6544       0.768  29.397 227.882  1.00 20.00    -0.386 OA
HETATM   68  C50 RAP  6544       1.888  29.355 227.056  1.00 20.00     0.202 C 
ENDBRANCH  21  67
TORSDOF 9
ENDMDL
MODEL 2
REMARK VINA RESULT:      -7.2      2.773      7.435
REMARK  9 active torsions:
REMARK  status: ('A' for Active; 'I' for Inactive)
REMARK    1  A    between atoms: C10_14  and  O6_16 
REMARK    2  A    between atoms: C16_23  and  O7_24 
REMARK    3  A    between atoms: C27_36  and  O9_37 
REMARK    4  A    between atoms: C28_38  and  O10_39 
REMARK    5  A    between atoms: C34_47  and  C35_48 
REMARK    6  A    between atoms: C35_48  and  C36_49 
REMARK    7  A    between atoms: C36_49  and  C37_50 
REMARK    8  A    between atoms: C39_52  and  O12_53 
REMARK    9  A    between atoms: C40_54  and  O13_55 
ROOT
HETATM    1  C1  RAP  6544       0.445  30.136 226.983  1.00 20.00     0.282 C 
HETATM    2  O1  RAP  6544      -0.637  30.782 227.643  1.00 20.00    -0.314 OA
HETATM    3  O2  RAP  6544       1.141  29.362 227.636  1.00 20.00    -0.263 OA
HETATM    4  C2  RAP  6544       0.732  30.349 225.497  1.00 20.00     0.187 C 
HETATM    5  C3  RAP  6544       2.221  30.539 225.249  1.00 20.00     0.035 C 
HETATM    6  C4  RAP  6544       2.739  31.909 225.662  1.00 20.00     0.004 C 
HETATM    7  C5  RAP  6544       1.907  32.963 224.955  1.00 20.00     0.020 C 
HETATM    8  C6  RAP  6544       0.456  32.814 225.297  1.00 20.00     0.127 C 
HETATM    9  N7  RAP  6544       0.029  31.472 224.870  1.00 20.00    -0.331 N 
HETATM   10  C8  RAP  6544      -1.051  31.255 224.103  1.00 20.00     0.296 C 
HETATM   11  O3  RAP  6544      -1.384  30.085 223.875  1.00 20.00    -0.264 OA
HETATM   12  C9  RAP  6544      -1.773  32.297 223.480  1.00 20.00     0.278 C 
HETATM   13  O4  RAP  6544      -1.401  32.710 222.375  1.00 20.00    -0.281 OA
HETATM   14  C10 RAP  6544      -3.016  32.938 224.124  1.00 20.00     0.238 C 
HETATM   15  O5  RAP  6544      -2.518  33.791 225.130  1.00 20.00    -0.343 OA
HETATM   16  C11 RAP  6544      -4.001  31.884 224.777  1.00 20.00     0.053 C 
HETATM   17  C12 RAP  6544      -5.051  32.580 225.673  1.00 20.00     0.013 C 
HETATM   18  C13 RAP  6544      -4.377  33.555 226.626  1.00 20.00     0.033 C 
HETATM   19  C14 RAP  6544      -3.389  34.494 225.939  1.00 20.00     0.128 C 
HETATM   20  C15 RAP  6544      -2.505  35.157 226.980  1.00 20.00     0.068 C 
HETATM   21  C16 RAP  6544      -3.171  36.185 227.888  1.00 20.00     0.152 C 
HETATM   22  C17 RAP  6544      -2.193  36.743 228.900  1.00 20.00    -0.055 C 
HETATM   23  C18 RAP  6544      -2.386  36.469 230.183  1.00 20.00     0.005 C 
HETATM   24  C19 RAP  6544      -1.510  36.912 231.276  1.00 20.00     0.000 C 
HETATM   25  C20 RAP  6544      -1.840  36.617 232.526  1.00 20.00    -0.000 C 
HETATM   26  C21 RAP  6544      -0.947  36.950 233.652  1.00 20.00    -0.004 C 
HETATM   27  C22 RAP  6544      -1.159  36.487 234.869  1.00 20.00    -0.022 C 
HETATM   28  C23 RAP  6544      -0.220  36.703 236.037  1.00 20.00     0.005 C 
HETATM   29  C24 RAP  6544       0.141  35.326 236.564  1.00 20.00     0.020 C 
HETATM   30  C25 RAP  6544       0.678  34.318 235.564  1.00 20.00     0.055 C 
HETATM   31  C26 RAP  6544       0.537  32.899 236.096  1.00 20.00     0.162 C 
HETATM   32  O8  RAP  6544       1.399  32.394 236.812  1.00 20.00    -0.295 OA
HETATM   33  C27 RAP  6544      -0.719  32.136 235.688  1.00 20.00     0.223 C 
HETATM   34  C28 RAP  6544      -0.603  31.446 234.291  1.00 20.00     0.183 C 
HETATM   35  C29 RAP  6544      -0.866  32.400 233.109  1.00 20.00    -0.056 C 
HETATM   36  C30 RAP  6544       0.089  32.796 232.269  1.00 20.00    -0.010 C 
HETATM   37  C31 RAP  6544      -0.007  33.698 231.029  1.00 20.00     0.074 C 
HETATM   38  C32 RAP  6544       0.042  32.839 229.766  1.00 20.00     0.136 C 
HETATM   39  O11 RAP  6544       1.060  32.749 229.072  1.00 20.00    -0.297 OA
HETATM   40  C33 RAP  6544      -1.227  32.056 229.450  1.00 20.00     0.112 C 
HETATM   41  C34 RAP  6544      -0.931  30.643 228.989  1.00 20.00     0.142 C 
HETATM   42  C43 RAP  6544      -4.690  30.911 223.776  1.00 20.00     0.016 C 
HETATM   43  C44 RAP  6544      -1.063  37.616 228.326  1.00 20.00     0.046 C 
HETATM   44  C45 RAP  6544      -0.882  37.539 237.122  1.00 20.00     0.014 C 
HETATM   45  C46 RAP  6544       2.131  34.617 235.185  1.00 20.00     0.018 C 
HETATM   46  C47 RAP  6544      -2.306  32.864 232.991  1.00 20.00     0.046 C 
HETATM   47  C48 RAP  6544       1.176  34.680 231.036  1.00 20.00     0.022 C 
ENDROOT
BRANCH  41  48
HETATM   48  C35 RAP  6544      -2.059  29.594 229.068  1.00 20.00     0.012 C 
HETATM   49  C49 RAP  6544      -2.894  29.564 227.820  1.00 20.00     0.012 C 
BRANCH  48  50
HETATM   50  C36 RAP  6544      -2.942  29.788 230.298  1.00 20.00     0.011 C 
BRANCH  50  51
HETATM   51  C37 RAP  6544      -4.371  30.282 230.066  1.00 20.00    -0.012 C 
HETATM   52  C42 RAP  6544      -4.560  31.797 230.127  1.00 20.00     0.007 C 
HETATM   53  C41 RAP  6544      -5.995  32.217 229.839  1.00 20.00     0.035 C 
HETATM   54  C40 RAP  6544      -6.980  31.491 230.777  1.00 20.00     0.147 C 
HETATM   55  C39 RAP  6544      -6.800  29.933 230.775  1.00 20.00     0.150 C 
HETATM   56  C38 RAP  6544      -5.334  29.577 231.030  1.00 20.00     0.039 C 
BRANCH  54  57
HETATM   57  O13 RAP  6544      -8.315  31.806 230.385  1.00 20.00    -0.393 OA
ATOM     58  H13 RAP  6544      -8.861  31.863 231.161  1.00  0.00     0.210 HD
ENDBRANCH  54  57
BRANCH  55  59
HETATM   59  O12 RAP  6544      -7.538  29.354 231.822  1.00 20.00    -0.388 OA
HETATM   60  C52 RAP  6544      -7.228  29.770 233.107  1.00 20.00     0.202 C 
ENDBRANCH  55  59
ENDBRANCH  50  51
ENDBRANCH  48  50
ENDBRANCH  41  48
BRANCH  34  61
HETATM   61  O10 RAP  6544       0.720  30.899 234.188  1.00 20.00    -0.388 OA
ATOM     62  H10 RAP  6544       1.196  31.154 234.969  1.00  0.00     0.210 HD
ENDBRANCH  34  61
BRANCH  33  63
HETATM   63  O9  RAP  6544      -0.947  31.114 236.622  1.00 20.00    -0.380 OA
HETATM   64  C51 RAP  6544      -2.002  30.265 236.333  1.00 20.00     0.202 C 
ENDBRANCH  33  63
BRANCH  14  65
HETATM   65  O6  RAP  6544      -3.723  33.678 223.125  1.00 20.00    -0.359 OA
ATOM     66  H6  RAP  6544      -4.129  34.432 223.533  1.00  0.00     0.213 HD
ENDBRANCH  14  65
BRANCH  21  67
HETATM   67  O7  RAP  6544      -3.646  37.219 227.085  1.00 20.00    -0.386 OA
HETATM   68  C50 RAP  6544      -5.029  37.323 226.965  1.00 20.00     0.202 C 
ENDBRANCH  21  67
TORSDOF 9
ENDMDL
MODEL 3
REMARK VINA RESULT:      -6.8      3.122      9.404
REMARK  9 active torsions:
REMARK  status: ('A' for Active; 'I' for Inactive)
REMARK    1  A    between atoms: C10_14  and  O6_16 
REMARK    2  A    between atoms: C16_23  and  O7_24 
REMARK    3  A    between atoms: C27_36  and  O9_37 
REMARK    4  A    between atoms: C28_38  and  O10_39 
REMARK    5  A    between atoms: C34_47  and  C35_48 
REMARK    6  A    between atoms: C35_48  and  C36_49 
REMARK    7  A    between atoms: C36_49  and  C37_50 
REMARK    8  A    between atoms: C39_52  and  O12_53 
REMARK    9  A    between atoms: C40_54  and  O13_55 
ROOT
HETATM    1  C1  RAP  6544       0.197  34.576 229.112  1.00 20.00     0.282 C 
HETATM    2  O1  RAP  6544      -1.150  34.994 229.295  1.00 20.00    -0.314 OA
HETATM    3  O2  RAP  6544       0.921  35.260 228.393  1.00 20.00    -0.263 OA
HETATM    4  C2  RAP  6544       0.765  33.340 229.808  1.00 20.00     0.187 C 
HETATM    5  C3  RAP  6544       1.603  32.508 228.849  1.00 20.00     0.035 C 
HETATM    6  C4  RAP  6544       0.776  31.707 227.853  1.00 20.00     0.004 C 
HETATM    7  C5  RAP  6544      -0.208  30.855 228.632  1.00 20.00     0.020 C 
HETATM    8  C6  RAP  6544      -1.088  31.709 229.493  1.00 20.00     0.127 C 
HETATM    9  N7  RAP  6544      -0.223  32.449 230.425  1.00 20.00    -0.331 N 
HETATM   10  C8  RAP  6544      -0.423  32.470 231.752  1.00 20.00     0.296 C 
HETATM   11  O3  RAP  6544       0.302  33.198 232.444  1.00 20.00    -0.264 OA
HETATM   12  C9  RAP  6544      -1.365  31.643 232.401  1.00 20.00     0.278 C 
HETATM   13  O4  RAP  6544      -1.031  30.500 232.738  1.00 20.00    -0.281 OA
HETATM   14  C10 RAP  6544      -2.798  32.111 232.711  1.00 20.00     0.238 C 
HETATM   15  O5  RAP  6544      -3.486  32.049 231.482  1.00 20.00    -0.343 OA
HETATM   16  C11 RAP  6544      -2.870  33.589 233.272  1.00 20.00     0.053 C 
HETATM   17  C12 RAP  6544      -4.322  34.121 233.268  1.00 20.00     0.013 C 
HETATM   18  C13 RAP  6544      -4.973  33.880 231.914  1.00 20.00     0.033 C 
HETATM   19  C14 RAP  6544      -4.805  32.452 231.403  1.00 20.00     0.128 C 
HETATM   20  C15 RAP  6544      -5.142  32.395 229.923  1.00 20.00     0.068 C 
HETATM   21  C16 RAP  6544      -6.608  32.579 229.548  1.00 20.00     0.152 C 
HETATM   22  C17 RAP  6544      -6.802  32.538 228.047  1.00 20.00    -0.055 C 
HETATM   23  C18 RAP  6544      -7.196  33.644 227.430  1.00 20.00     0.005 C 
HETATM   24  C19 RAP  6544      -7.400  33.768 225.980  1.00 20.00     0.000 C 
HETATM   25  C20 RAP  6544      -7.847  34.915 225.488  1.00 20.00    -0.000 C 
HETATM   26  C21 RAP  6544      -7.973  35.127 224.034  1.00 20.00    -0.004 C 
HETATM   27  C22 RAP  6544      -8.219  36.317 223.522  1.00 20.00    -0.022 C 
HETATM   28  C23 RAP  6544      -8.249  36.616 222.039  1.00 20.00     0.005 C 
HETATM   29  C24 RAP  6544      -7.245  37.729 221.799  1.00 20.00     0.020 C 
HETATM   30  C25 RAP  6544      -5.836  37.518 222.321  1.00 20.00     0.055 C 
HETATM   31  C26 RAP  6544      -5.101  38.845 222.449  1.00 20.00     0.162 C 
HETATM   32  O8  RAP  6544      -4.495  39.337 221.500  1.00 20.00    -0.295 OA
HETATM   33  C27 RAP  6544      -5.148  39.525 223.813  1.00 20.00     0.223 C 
HETATM   34  C28 RAP  6544      -4.068  38.995 224.811  1.00 20.00     0.183 C 
HETATM   35  C29 RAP  6544      -4.468  37.683 225.513  1.00 20.00    -0.056 C 
HETATM   36  C30 RAP  6544      -3.875  36.516 225.265  1.00 20.00    -0.010 C 
HETATM   37  C31 RAP  6544      -4.118  35.137 225.899  1.00 20.00     0.074 C 
HETATM   38  C32 RAP  6544      -3.006  34.831 226.902  1.00 20.00     0.136 C 
HETATM   39  O11 RAP  6544      -2.082  34.055 226.641  1.00 20.00    -0.297 OA
HETATM   40  C33 RAP  6544      -3.080  35.591 228.221  1.00 20.00     0.112 C 
HETATM   41  C34 RAP  6544      -1.724  36.091 228.675  1.00 20.00     0.142 C 
HETATM   42  C43 RAP  6544      -2.211  33.803 234.667  1.00 20.00     0.016 C 
HETATM   43  C44 RAP  6544      -6.545  31.177 227.378  1.00 20.00     0.046 C 
HETATM   44  C45 RAP  6544      -9.641  37.041 221.596  1.00 20.00     0.014 C 
HETATM   45  C46 RAP  6544      -5.048  36.541 221.443  1.00 20.00     0.018 C 
HETATM   46  C47 RAP  6544      -5.609  37.828 226.503  1.00 20.00     0.046 C 
HETATM   47  C48 RAP  6544      -4.123  34.074 224.788  1.00 20.00     0.022 C 
ENDROOT
BRANCH  41  48
HETATM   48  C35 RAP  6544      -1.671  37.234 229.708  1.00 20.00     0.012 C 
HETATM   49  C49 RAP  6544      -2.121  36.790 231.071  1.00 20.00     0.012 C 
BRANCH  48  50
HETATM   50  C36 RAP  6544      -2.464  38.458 229.255  1.00 20.00     0.011 C 
BRANCH  50  51
HETATM   51  C37 RAP  6544      -1.680  39.604 228.613  1.00 20.00    -0.012 C 
HETATM   52  C42 RAP  6544      -2.306  40.201 227.352  1.00 20.00     0.007 C 
HETATM   53  C41 RAP  6544      -1.498  41.366 226.797  1.00 20.00     0.035 C 
HETATM   54  C40 RAP  6544      -0.032  40.954 226.555  1.00 20.00     0.147 C 
HETATM   55  C39 RAP  6544       0.642  40.302 227.812  1.00 20.00     0.150 C 
HETATM   56  C38 RAP  6544      -0.235  39.167 228.345  1.00 20.00     0.039 C 
BRANCH  54  57
HETATM   57  O13 RAP  6544       0.717  42.104 226.167  1.00 20.00    -0.393 OA
ATOM     58  H13 RAP  6544       1.400  42.260 226.809  1.00  0.00     0.210 HD
ENDBRANCH  54  57
BRANCH  55  59
HETATM   59  O12 RAP  6544       1.874  39.724 227.461  1.00 20.00    -0.388 OA
HETATM   60  C52 RAP  6544       1.874  38.360 227.214  1.00 20.00     0.202 C 
ENDBRANCH  55  59
ENDBRANCH  50  51
ENDBRANCH  48  50
ENDBRANCH  41  48
BRANCH  34  61
HETATM   61  O10 RAP  6544      -2.855  38.799 224.070  1.00 20.00    -0.388 OA
ATOM     62  H10 RAP  6544      -2.684  39.597 223.584  1.00  0.00     0.210 HD
ENDBRANCH  34  61
BRANCH  33  63
HETATM   63  O9  RAP  6544      -4.898  40.894 223.641  1.00 20.00    -0.380 OA
HETATM   64  C51 RAP  6544      -5.621  41.741 224.465  1.00 20.00     0.202 C 
ENDBRANCH  33  63
BRANCH  14  65
HETATM   65  O6  RAP  6544      -3.376  31.221 233.671  1.00 20.00    -0.359 OA
ATOM     66  H6  RAP  6544      -3.545  30.387 233.250  1.00  0.00     0.213 HD
ENDBRANCH  14  65
BRANCH  21  67
HETATM   67  O7  RAP  6544      -7.332  31.546 230.138  1.00 20.00    -0.386 OA
HETATM   68  C50 RAP  6544      -8.415  31.922 230.926  1.00 20.00     0.202 C 
ENDBRANCH  21  67
TORSDOF 9
ENDMDL
MODEL 4
REMARK VINA RESULT:      -6.8      3.178      5.711
REMARK  9 active torsions:
REMARK  status: ('A' for Active; 'I' for Inactive)
REMARK    1  A    between atoms: C10_14  and  O6_16 
REMARK    2  A    between atoms: C16_23  and  O7_24 
REMARK    3  A    between atoms: C27_36  and  O9_37 
REMARK    4  A    between atoms: C28_38  and  O10_39 
REMARK    5  A    between atoms: C34_47  and  C35_48 
REMARK    6  A    between atoms: C35_48  and  C36_49 
REMARK    7  A    between atoms: C36_49  and  C37_50 
REMARK    8  A    between atoms: C39_52  and  O12_53 
REMARK    9  A    between atoms: C40_54  and  O13_55 
ROOT
HETATM    1  C1  RAP  6544      -2.822  34.495 226.460  1.00 20.00     0.282 C 
HETATM    2  O1  RAP  6544      -3.035  33.424 227.371  1.00 20.00    -0.314 OA
HETATM    3  O2  RAP  6544      -1.734  35.068 226.487  1.00 20.00    -0.263 OA
HETATM    4  C2  RAP  6544      -3.879  34.919 225.441  1.00 20.00     0.187 C 
HETATM    5  C3  RAP  6544      -4.005  36.433 225.380  1.00 20.00     0.035 C 
HETATM    6  C4  RAP  6544      -4.745  37.033 226.567  1.00 20.00     0.004 C 
HETATM    7  C5  RAP  6544      -6.098  36.354 226.673  1.00 20.00     0.020 C 
HETATM    8  C6  RAP  6544      -5.941  34.874 226.834  1.00 20.00     0.127 C 
HETATM    9  N7  RAP  6544      -5.221  34.367 225.655  1.00 20.00    -0.331 N 
HETATM   10  C8  RAP  6544      -5.659  33.338 224.913  1.00 20.00     0.296 C 
HETATM   11  O3  RAP  6544      -4.936  32.925 223.997  1.00 20.00    -0.264 OA
HETATM   12  C9  RAP  6544      -6.937  32.761 225.078  1.00 20.00     0.278 C 
HETATM   13  O4  RAP  6544      -7.902  33.255 224.482  1.00 20.00    -0.281 OA
HETATM   14  C10 RAP  6544      -7.177  31.531 225.972  1.00 20.00     0.238 C 
HETATM   15  O5  RAP  6544      -7.150  32.018 227.294  1.00 20.00    -0.343 OA
HETATM   16  C11 RAP  6544      -6.071  30.409 225.809  1.00 20.00     0.053 C 
HETATM   17  C12 RAP  6544      -6.174  29.354 226.934  1.00 20.00     0.013 C 
HETATM   18  C13 RAP  6544      -6.253  30.032 228.294  1.00 20.00     0.033 C 
HETATM   19  C14 RAP  6544      -7.291  31.149 228.358  1.00 20.00     0.128 C 
HETATM   20  C15 RAP  6544      -7.050  32.001 229.592  1.00 20.00     0.068 C 
HETATM   21  C16 RAP  6544      -7.356  31.355 230.939  1.00 20.00     0.152 C 
HETATM   22  C17 RAP  6544      -7.040  32.294 232.084  1.00 20.00    -0.055 C 
HETATM   23  C18 RAP  6544      -6.051  31.975 232.908  1.00 20.00     0.005 C 
HETATM   24  C19 RAP  6544      -5.608  32.795 234.044  1.00 20.00     0.000 C 
HETATM   25  C20 RAP  6544      -4.639  32.342 234.827  1.00 20.00    -0.000 C 
HETATM   26  C21 RAP  6544      -4.089  33.167 235.919  1.00 20.00    -0.004 C 
HETATM   27  C22 RAP  6544      -2.997  32.819 236.572  1.00 20.00    -0.022 C 
HETATM   28  C23 RAP  6544      -2.325  33.676 237.623  1.00 20.00     0.005 C 
HETATM   29  C24 RAP  6544      -0.889  33.873 237.170  1.00 20.00     0.020 C 
HETATM   30  C25 RAP  6544      -0.671  34.399 235.763  1.00 20.00     0.055 C 
HETATM   31  C26 RAP  6544       0.741  34.094 235.283  1.00 20.00     0.162 C 
HETATM   32  O8  RAP  6544       1.679  34.849 235.529  1.00 20.00    -0.295 OA
HETATM   33  C27 RAP  6544       0.928  32.814 234.476  1.00 20.00     0.223 C 
HETATM   34  C28 RAP  6544       0.602  32.982 232.957  1.00 20.00     0.183 C 
HETATM   35  C29 RAP  6544      -0.902  32.898 232.636  1.00 20.00    -0.056 C 
HETATM   36  C30 RAP  6544      -1.621  33.948 232.240  1.00 20.00    -0.010 C 
HETATM   37  C31 RAP  6544      -3.102  34.030 231.842  1.00 20.00     0.074 C 
HETATM   38  C32 RAP  6544      -3.221  34.106 230.320  1.00 20.00     0.136 C 
HETATM   39  O11 RAP  6544      -3.464  35.165 229.733  1.00 20.00    -0.297 OA
HETATM   40  C33 RAP  6544      -2.962  32.804 229.572  1.00 20.00     0.112 C 
HETATM   41  C34 RAP  6544      -2.123  33.012 228.327  1.00 20.00     0.142 C 
HETATM   42  C43 RAP  6544      -6.025  29.721 224.413  1.00 20.00     0.016 C 
HETATM   43  C44 RAP  6544      -7.939  33.536 232.197  1.00 20.00     0.046 C 
HETATM   44  C45 RAP  6544      -2.371  33.004 238.987  1.00 20.00     0.014 C 
HETATM   45  C46 RAP  6544      -0.968  35.899 235.668  1.00 20.00     0.018 C 
HETATM   46  C47 RAP  6544      -1.504  31.518 232.824  1.00 20.00     0.046 C 
HETATM   47  C48 RAP  6544      -3.718  35.289 232.475  1.00 20.00     0.022 C 
ENDROOT
BRANCH  41  48
HETATM   48  C35 RAP  6544      -1.397  31.795 227.720  1.00 20.00     0.012 C 
HETATM   49  C49 RAP  6544      -2.216  30.539 227.814  1.00 20.00     0.012 C 
BRANCH  48  50
HETATM   50  C36 RAP  6544      -0.016  31.582 228.336  1.00 20.00     0.011 C 
BRANCH  50  51
HETATM   51  C37 RAP  6544       1.020  32.690 228.138  1.00 20.00    -0.012 C 
HETATM   52  C42 RAP  6544       0.847  33.916 229.034  1.00 20.00     0.007 C 
HETATM   53  C41 RAP  6544       1.940  34.954 228.817  1.00 20.00     0.035 C 
HETATM   54  C40 RAP  6544       2.032  35.354 227.331  1.00 20.00     0.147 C 
HETATM   55  C39 RAP  6544       2.174  34.124 226.368  1.00 20.00     0.150 C 
HETATM   56  C38 RAP  6544       1.075  33.101 226.662  1.00 20.00     0.039 C 
BRANCH  54  57
HETATM   57  O13 RAP  6544       3.152  36.220 227.149  1.00 20.00    -0.393 OA
ATOM     58  H13 RAP  6544       2.873  36.990 226.669  1.00  0.00     0.210 HD
ENDBRANCH  54  57
BRANCH  55  59
HETATM   59  O12 RAP  6544       1.999  34.526 225.033  1.00 20.00    -0.388 OA
HETATM   60  C52 RAP  6544       1.971  33.521 224.078  1.00 20.00     0.202 C 
ENDBRANCH  55  59
ENDBRANCH  50  51
ENDBRANCH  48  50
ENDBRANCH  41  48
BRANCH  34  61
HETATM   61  O10 RAP  6544       1.117  34.256 232.543  1.00 20.00    -0.388 OA
ATOM     62  H10 RAP  6544       0.510  34.921 232.844  1.00  0.00     0.210 HD
ENDBRANCH  34  61
BRANCH  33  63
HETATM   63  O9  RAP  6544       2.273  32.425 234.557  1.00 20.00    -0.380 OA
HETATM   64  C51 RAP  6544       2.531  31.100 234.246  1.00 20.00     0.202 C 
ENDBRANCH  33  63
BRANCH  14  65
HETATM   65  O6  RAP  6544      -8.455  30.972 225.654  1.00 20.00    -0.359 OA
ATOM     66  H6  RAP  6544      -8.598  30.207 226.198  1.00  0.00     0.213 HD
ENDBRANCH  14  65
BRANCH  21  67
HETATM   67  O7  RAP  6544      -8.711  31.037 230.961  1.00 20.00    -0.386 OA
HETATM   68  C50 RAP  6544      -9.065  29.888 231.663  1.00 20.00     0.202 C 
ENDBRANCH  21  67
TORSDOF 9
ENDMDL
MODEL 5
REMARK VINA RESULT:      -6.8      2.166      3.248
REMARK  9 active torsions:
REMARK  status: ('A' for Active; 'I' for Inactive)
REMARK    1  A    between atoms: C10_14  and  O6_16 
REMARK    2  A    between atoms: C16_23  and  O7_24 
REMARK    3  A    between atoms: C27_36  and  O9_37 
REMARK    4  A    between atoms: C28_38  and  O10_39 
REMARK    5  A    between atoms: C34_47  and  C35_48 
REMARK    6  A    between atoms: C35_48  and  C36_49 
REMARK    7  A    between atoms: C36_49  and  C37_50 
REMARK    8  A    between atoms: C39_52  and  O12_53 
REMARK    9  A    between atoms: C40_54  and  O13_55 
ROOT
HETATM    1  C1  RAP  6544      -6.995  33.813 226.938  1.00 20.00     0.282 C 
HETATM    2  O1  RAP  6544      -5.610  34.133 226.960  1.00 20.00    -0.314 OA
HETATM    3  O2  RAP  6544      -7.696  34.218 227.863  1.00 20.00    -0.263 OA
HETATM    4  C2  RAP  6544      -7.628  33.024 225.793  1.00 20.00     0.187 C 
HETATM    5  C3  RAP  6544      -8.583  31.964 226.320  1.00 20.00     0.035 C 
HETATM    6  C4  RAP  6544      -7.881  30.753 226.917  1.00 20.00     0.004 C 
HETATM    7  C5  RAP  6544      -6.933  30.193 225.873  1.00 20.00     0.020 C 
HETATM    8  C6  RAP  6544      -5.940  31.230 225.446  1.00 20.00     0.127 C 
HETATM    9  N7  RAP  6544      -6.688  32.364 224.882  1.00 20.00    -0.331 N 
HETATM   10  C8  RAP  6544      -6.417  32.898 223.680  1.00 20.00     0.296 C 
HETATM   11  O3  RAP  6544      -7.039  33.910 223.333  1.00 20.00    -0.264 OA
HETATM   12  C9  RAP  6544      -5.515  32.312 222.765  1.00 20.00     0.278 C 
HETATM   13  O4  RAP  6544      -5.926  31.441 221.989  1.00 20.00    -0.281 OA
HETATM   14  C10 RAP  6544      -4.033  32.721 222.692  1.00 20.00     0.238 C 
HETATM   15  O5  RAP  6544      -3.419  32.102 223.800  1.00 20.00    -0.343 OA
HETATM   16  C11 RAP  6544      -3.807  34.286 222.780  1.00 20.00     0.053 C 
HETATM   17  C12 RAP  6544      -2.317  34.624 223.020  1.00 20.00     0.013 C 
HETATM   18  C13 RAP  6544      -1.761  33.795 224.169  1.00 20.00     0.033 C 
HETATM   19  C14 RAP  6544      -2.076  32.307 224.054  1.00 20.00     0.128 C 
HETATM   20  C15 RAP  6544      -1.825  31.626 225.388  1.00 20.00     0.068 C 
HETATM   21  C16 RAP  6544      -0.371  31.498 225.827  1.00 20.00     0.152 C 
HETATM   22  C17 RAP  6544      -0.260  30.837 227.184  1.00 20.00    -0.055 C 
HETATM   23  C18 RAP  6544       0.193  31.556 228.202  1.00 20.00     0.005 C 
HETATM   24  C19 RAP  6544       0.329  31.066 229.581  1.00 20.00     0.000 C 
HETATM   25  C20 RAP  6544       0.845  31.867 230.502  1.00 20.00    -0.000 C 
HETATM   26  C21 RAP  6544       0.911  31.462 231.919  1.00 20.00    -0.004 C 
HETATM   27  C22 RAP  6544       1.230  32.315 232.873  1.00 20.00    -0.022 C 
HETATM   28  C23 RAP  6544       1.206  31.987 234.350  1.00 20.00     0.005 C 
HETATM   29  C24 RAP  6544       0.289  33.003 235.007  1.00 20.00     0.020 C 
HETATM   30  C25 RAP  6544      -1.103  33.160 234.424  1.00 20.00     0.055 C 
HETATM   31  C26 RAP  6544      -1.715  34.492 234.835  1.00 20.00     0.162 C 
HETATM   32  O8  RAP  6544      -2.327  34.618 235.893  1.00 20.00    -0.295 OA
HETATM   33  C27 RAP  6544      -1.539  35.655 233.865  1.00 20.00     0.223 C 
HETATM   34  C28 RAP  6544      -2.605  35.681 232.723  1.00 20.00     0.183 C 
HETATM   35  C29 RAP  6544      -2.281  34.730 231.555  1.00 20.00    -0.056 C 
HETATM   36  C30 RAP  6544      -2.983  33.627 231.299  1.00 20.00    -0.010 C 
HETATM   37  C31 RAP  6544      -2.825  32.603 230.164  1.00 20.00     0.074 C 
HETATM   38  C32 RAP  6544      -3.904  32.839 229.108  1.00 20.00     0.136 C 
HETATM   39  O11 RAP  6544      -4.903  32.119 229.018  1.00 20.00    -0.297 OA
HETATM   40  C33 RAP  6544      -3.695  34.054 228.211  1.00 20.00     0.112 C 
HETATM   41  C34 RAP  6544      -4.979  34.825 227.979  1.00 20.00     0.142 C 
HETATM   42  C43 RAP  6544      -4.370  35.106 221.583  1.00 20.00     0.016 C 
HETATM   43  C44 RAP  6544      -0.666  29.354 227.240  1.00 20.00     0.046 C 
HETATM   44  C45 RAP  6544       2.604  32.058 234.947  1.00 20.00     0.014 C 
HETATM   45  C46 RAP  6544      -2.016  31.995 234.819  1.00 20.00     0.018 C 
HETATM   46  C47 RAP  6544      -1.081  35.148 230.725  1.00 20.00     0.046 C 
HETATM   47  C48 RAP  6544      -2.969  31.188 230.748  1.00 20.00     0.022 C 
ENDROOT
BRANCH  41  48
HETATM   48  C35 RAP  6544      -4.880  36.287 227.499  1.00 20.00     0.012 C 
HETATM   49  C49 RAP  6544      -5.195  36.426 226.037  1.00 20.00     0.012 C 
BRANCH  48  50
HETATM   50  C36 RAP  6544      -3.521  36.907 227.815  1.00 20.00     0.011 C 
BRANCH  50  51
HETATM   51  C37 RAP  6544      -3.352  38.403 227.542  1.00 20.00    -0.012 C 
HETATM   52  C42 RAP  6544      -3.217  38.790 226.070  1.00 20.00     0.007 C 
HETATM   53  C41 RAP  6544      -3.101  40.295 225.871  1.00 20.00     0.035 C 
HETATM   54  C40 RAP  6544      -1.945  40.874 226.712  1.00 20.00     0.147 C 
HETATM   55  C39 RAP  6544      -2.021  40.473 228.226  1.00 20.00     0.150 C 
HETATM   56  C38 RAP  6544      -2.177  38.957 228.357  1.00 20.00     0.039 C 
BRANCH  54  57
HETATM   57  O13 RAP  6544      -1.958  42.296 226.605  1.00 20.00    -0.393 OA
ATOM     58  H13 RAP  6544      -1.441  42.555 225.850  1.00  0.00     0.210 HD
ENDBRANCH  54  57
BRANCH  55  59
HETATM   59  O12 RAP  6544      -0.825  40.810 228.881  1.00 20.00    -0.388 OA
HETATM   60  C52 RAP  6544       0.353  40.398 228.278  1.00 20.00     0.202 C 
ENDBRANCH  55  59
ENDBRANCH  50  51
ENDBRANCH  48  50
ENDBRANCH  41  48
BRANCH  34  61
HETATM   61  O10 RAP  6544      -3.868  35.325 233.303  1.00 20.00    -0.388 OA
ATOM     62  H10 RAP  6544      -4.426  35.010 232.602  1.00  0.00     0.210 HD
ENDBRANCH  34  61
BRANCH  33  63
HETATM   63  O9  RAP  6544      -1.681  36.857 234.574  1.00 20.00    -0.380 OA
HETATM   64  C51 RAP  6544      -0.634  37.176 235.424  1.00 20.00     0.202 C 
ENDBRANCH  33  63
BRANCH  14  65
HETATM   65  O6  RAP  6544      -3.482  32.240 221.462  1.00 20.00    -0.359 OA
ATOM     66  H6  RAP  6544      -4.194  31.978 220.891  1.00  0.00     0.213 HD
ENDBRANCH  14  65
BRANCH  21  67
HETATM   67  O7  RAP  6544       0.293  30.723 224.879  1.00 20.00    -0.386 OA
HETATM   68  C50 RAP  6544       1.552  31.170 224.487  1.00 20.00     0.202 C 
ENDBRANCH  21  67
TORSDOF 9
ENDMDL
MODEL 6
REMARK VINA RESULT:      -6.3      2.974      9.583
REMARK  9 active torsions:
REMARK  status: ('A' for Active; 'I' for Inactive)
REMARK    1  A    between atoms: C10_14  and  O6_16 
REMARK    2  A    between atoms: C16_23  and  O7_24 
REMARK    3  A    between atoms: C27_36  and  O9_37 
REMARK    4  A    between atoms: C28_38  and  O10_39 
REMARK    5  A    between atoms: C34_47  and  C35_48 
REMARK    6  A    between atoms: C35_48  and  C36_49 
REMARK    7  A    between atoms: C36_49  and  C37_50 
REMARK    8  A    between atoms: C39_52  and  O12_53 
REMARK    9  A    between atoms: C40_54  and  O13_55 
ROOT
HETATM    1  C1  RAP  6544       0.372  32.879 230.384  1.00 20.00     0.282 C 
HETATM    2  O1  RAP  6544      -0.875  33.562 230.343  1.00 20.00    -0.314 OA
HETATM    3  O2  RAP  6544       1.120  32.985 229.415  1.00 20.00    -0.263 OA
HETATM    4  C2  RAP  6544       0.812  32.064 231.599  1.00 20.00     0.187 C 
HETATM    5  C3  RAP  6544       1.424  30.737 231.176  1.00 20.00     0.035 C 
HETATM    6  C4  RAP  6544       0.398  29.711 230.716  1.00 20.00     0.004 C 
HETATM    7  C5  RAP  6544      -0.626  29.536 231.822  1.00 20.00     0.020 C 
HETATM    8  C6  RAP  6544      -1.285  30.841 232.149  1.00 20.00     0.127 C 
HETATM    9  N7  RAP  6544      -0.237  31.777 232.584  1.00 20.00    -0.331 N 
HETATM   10  C8  RAP  6544      -0.307  32.479 233.726  1.00 20.00     0.296 C 
HETATM   11  O3  RAP  6544       0.578  33.312 233.959  1.00 20.00    -0.264 OA
HETATM   12  C9  RAP  6544      -1.298  32.254 234.706  1.00 20.00     0.278 C 
HETATM   13  O4  RAP  6544      -1.109  31.384 235.565  1.00 20.00    -0.281 OA
HETATM   14  C10 RAP  6544      -2.611  33.058 234.751  1.00 20.00     0.238 C 
HETATM   15  O5  RAP  6544      -3.411  32.524 233.720  1.00 20.00    -0.343 OA
HETATM   16  C11 RAP  6544      -2.409  34.608 234.503  1.00 20.00     0.053 C 
HETATM   17  C12 RAP  6544      -3.759  35.314 234.244  1.00 20.00     0.013 C 
HETATM   18  C13 RAP  6544      -4.562  34.561 233.193  1.00 20.00     0.033 C 
HETATM   19  C14 RAP  6544      -4.657  33.062 233.459  1.00 20.00     0.128 C 
HETATM   20  C15 RAP  6544      -5.134  32.348 232.206  1.00 20.00     0.068 C 
HETATM   21  C16 RAP  6544      -6.584  32.579 231.798  1.00 20.00     0.152 C 
HETATM   22  C17 RAP  6544      -6.921  31.844 230.518  1.00 20.00    -0.055 C 
HETATM   23  C18 RAP  6544      -7.201  32.557 229.435  1.00 20.00     0.005 C 
HETATM   24  C19 RAP  6544      -7.517  31.990 228.117  1.00 20.00     0.000 C 
HETATM   25  C20 RAP  6544      -7.832  32.808 227.122  1.00 20.00    -0.000 C 
HETATM   26  C21 RAP  6544      -8.059  32.300 225.756  1.00 20.00    -0.004 C 
HETATM   27  C22 RAP  6544      -8.171  33.110 224.722  1.00 20.00    -0.022 C 
HETATM   28  C23 RAP  6544      -8.294  32.645 223.287  1.00 20.00     0.005 C 
HETATM   29  C24 RAP  6544      -7.162  33.303 222.518  1.00 20.00     0.020 C 
HETATM   30  C25 RAP  6544      -5.758  33.131 223.067  1.00 20.00     0.055 C 
HETATM   31  C26 RAP  6544      -4.825  34.198 222.513  1.00 20.00     0.162 C 
HETATM   32  O8  RAP  6544      -4.242  34.048 221.442  1.00 20.00    -0.295 OA
HETATM   33  C27 RAP  6544      -4.643  35.454 223.359  1.00 20.00     0.223 C 
HETATM   34  C28 RAP  6544      -3.566  35.300 224.481  1.00 20.00     0.183 C 
HETATM   35  C29 RAP  6544      -4.091  34.592 225.745  1.00 20.00    -0.056 C 
HETATM   36  C30 RAP  6544      -3.704  33.370 226.108  1.00 20.00    -0.010 C 
HETATM   37  C31 RAP  6544      -4.090  32.544 227.344  1.00 20.00     0.074 C 
HETATM   38  C32 RAP  6544      -2.948  32.578 228.360  1.00 20.00     0.136 C 
HETATM   39  O11 RAP  6544      -2.178  31.625 228.514  1.00 20.00    -0.297 OA
HETATM   40  C33 RAP  6544      -2.786  33.886 229.127  1.00 20.00     0.112 C 
HETATM   41  C34 RAP  6544      -1.334  34.297 229.264  1.00 20.00     0.142 C 
HETATM   42  C43 RAP  6544      -1.600  35.356 235.602  1.00 20.00     0.016 C 
HETATM   43  C44 RAP  6544      -6.933  30.309 230.613  1.00 20.00     0.046 C 
HETATM   44  C45 RAP  6544      -9.642  33.037 222.700  1.00 20.00     0.014 C 
HETATM   45  C46 RAP  6544      -5.209  31.728 222.787  1.00 20.00     0.018 C 
HETATM   46  C47 RAP  6544      -5.101  35.401 226.539  1.00 20.00     0.046 C 
HETATM   47  C48 RAP  6544      -4.356  31.094 226.910  1.00 20.00     0.022 C 
ENDROOT
BRANCH  41  48
HETATM   48  C35 RAP  6544      -1.015  35.769 229.590  1.00 20.00     0.012 C 
HETATM   49  C49 RAP  6544      -1.639  36.212 230.883  1.00 20.00     0.012 C 
BRANCH  48  50
HETATM   50  C36 RAP  6544      -1.411  36.710 228.455  1.00 20.00     0.011 C 
BRANCH  50  51
HETATM   51  C37 RAP  6544      -1.052  38.189 228.611  1.00 20.00    -0.012 C 
HETATM   52  C42 RAP  6544      -2.191  39.172 228.341  1.00 20.00     0.007 C 
HETATM   53  C41 RAP  6544      -1.775  40.620 228.563  1.00 20.00     0.035 C 
HETATM   54  C40 RAP  6544      -0.524  40.968 227.731  1.00 20.00     0.147 C 
HETATM   55  C39 RAP  6544       0.661  39.964 227.948  1.00 20.00     0.150 C 
HETATM   56  C38 RAP  6544       0.171  38.528 227.751  1.00 20.00     0.039 C 
BRANCH  54  57
HETATM   57  O13 RAP  6544      -0.089  42.283 228.070  1.00 20.00    -0.393 OA
ATOM     58  H13 RAP  6544      -0.534  42.911 227.514  1.00  0.00     0.210 HD
ENDBRANCH  54  57
BRANCH  55  59
HETATM   59  O12 RAP  6544       1.665  40.178 226.989  1.00 20.00    -0.388 OA
HETATM   60  C52 RAP  6544       2.886  40.639 227.457  1.00 20.00     0.202 C 
ENDBRANCH  55  59
ENDBRANCH  50  51
ENDBRANCH  48  50
ENDBRANCH  41  48
BRANCH  34  61
HETATM   61  O10 RAP  6544      -2.470  34.558 223.929  1.00 20.00    -0.388 OA
ATOM     62  H10 RAP  6544      -2.312  34.890 223.053  1.00  0.00     0.210 HD
ENDBRANCH  34  61
BRANCH  33  63
HETATM   63  O9  RAP  6544      -4.209  36.497 222.527  1.00 20.00    -0.380 OA
HETATM   64  C51 RAP  6544      -5.154  37.469 222.244  1.00 20.00     0.202 C 
ENDBRANCH  33  63
BRANCH  14  65
HETATM   65  O6  RAP  6544      -3.224  32.868 236.030  1.00 20.00    -0.359 OA
ATOM     66  H6  RAP  6544      -3.310  33.712 236.455  1.00  0.00     0.213 HD
ENDBRANCH  14  65
BRANCH  21  67
HETATM   67  O7  RAP  6544      -7.396  32.111 232.828  1.00 20.00    -0.386 OA
HETATM   68  C50 RAP  6544      -8.114  33.072 233.534  1.00 20.00     0.202 C 
ENDBRANCH  21  67
TORSDOF 9
ENDMDL
MODEL 7
REMARK VINA RESULT:      -6.0      2.866      6.268
REMARK  9 active torsions:
REMARK  status: ('A' for Active; 'I' for Inactive)
REMARK    1  A    between atoms: C10_14  and  O6_16 
REMARK    2  A    between atoms: C16_23  and  O7_24 
REMARK    3  A    between atoms: C27_36  and  O9_37 
REMARK    4  A    between atoms: C28_38  and  O10_39 
REMARK    5  A    between atoms: C34_47  and  C35_48 
REMARK    6  A    between atoms: C35_48  and  C36_49 
REMARK    7  A    between atoms: C36_49  and  C37_50 
REMARK    8  A    between atoms: C39_52  and  O12_53 
REMARK    9  A    between atoms: C40_54  and  O13_55 
ROOT
HETATM    1  C1  RAP  6544      -0.735  35.214 228.481  1.00 20.00     0.282 C 
HETATM    2  O1  RAP  6544      -1.216  34.018 229.080  1.00 20.00    -0.314 OA
HETATM    3  O2  RAP  6544       0.428  35.544 228.702  1.00 20.00    -0.263 OA
HETATM    4  C2  RAP  6544      -1.603  36.064 227.555  1.00 20.00     0.187 C 
HETATM    5  C3  RAP  6544      -1.458  37.545 227.873  1.00 20.00     0.035 C 
HETATM    6  C4  RAP  6544      -2.188  37.972 229.137  1.00 20.00     0.004 C 
HETATM    7  C5  RAP  6544      -3.643  37.561 229.005  1.00 20.00     0.020 C 
HETATM    8  C6  RAP  6544      -3.762  36.083 228.793  1.00 20.00     0.127 C 
HETATM    9  N7  RAP  6544      -3.035  35.746 227.559  1.00 20.00    -0.331 N 
HETATM   10  C8  RAP  6544      -3.575  35.029 226.562  1.00 20.00     0.296 C 
HETATM   11  O3  RAP  6544      -2.854  34.716 225.605  1.00 20.00    -0.264 OA
HETATM   12  C9  RAP  6544      -4.944  34.685 226.516  1.00 20.00     0.278 C 
HETATM   13  O4  RAP  6544      -5.749  35.484 226.021  1.00 20.00    -0.281 OA
HETATM   14  C10 RAP  6544      -5.476  33.346 227.058  1.00 20.00     0.238 C 
HETATM   15  O5  RAP  6544      -5.487  33.488 228.460  1.00 20.00    -0.343 OA
HETATM   16  C11 RAP  6544      -4.573  32.106 226.667  1.00 20.00     0.053 C 
HETATM   17  C12 RAP  6544      -4.962  30.851 227.483  1.00 20.00     0.013 C 
HETATM   18  C13 RAP  6544      -5.047  31.185 228.966  1.00 20.00     0.033 C 
HETATM   19  C14 RAP  6544      -5.875  32.432 229.262  1.00 20.00     0.128 C 
HETATM   20  C15 RAP  6544      -5.605  32.901 230.681  1.00 20.00     0.068 C 
HETATM   21  C16 RAP  6544      -6.142  32.022 231.805  1.00 20.00     0.152 C 
HETATM   22  C17 RAP  6544      -5.775  32.579 233.164  1.00 20.00    -0.055 C 
HETATM   23  C18 RAP  6544      -4.937  31.888 233.925  1.00 20.00     0.005 C 
HETATM   24  C19 RAP  6544      -4.465  32.312 235.251  1.00 20.00     0.000 C 
HETATM   25  C20 RAP  6544      -3.667  31.506 235.938  1.00 20.00    -0.000 C 
HETATM   26  C21 RAP  6544      -3.084  31.924 237.227  1.00 20.00    -0.004 C 
HETATM   27  C22 RAP  6544      -2.136  31.226 237.821  1.00 20.00    -0.022 C 
HETATM   28  C23 RAP  6544      -1.424  31.661 239.084  1.00 20.00     0.005 C 
HETATM   29  C24 RAP  6544       0.060  31.682 238.762  1.00 20.00     0.020 C 
HETATM   30  C25 RAP  6544       0.495  32.478 237.546  1.00 20.00     0.055 C 
HETATM   31  C26 RAP  6544       1.870  32.032 237.071  1.00 20.00     0.162 C 
HETATM   32  O8  RAP  6544       2.899  32.511 237.542  1.00 20.00    -0.295 OA
HETATM   33  C27 RAP  6544       1.905  30.972 235.975  1.00 20.00     0.223 C 
HETATM   34  C28 RAP  6544       1.756  31.558 234.535  1.00 20.00     0.183 C 
HETATM   35  C29 RAP  6544       0.296  31.844 234.134  1.00 20.00    -0.056 C 
HETATM   36  C30 RAP  6544      -0.188  33.076 233.983  1.00 20.00    -0.010 C 
HETATM   37  C31 RAP  6544      -1.589  33.534 233.551  1.00 20.00     0.074 C 
HETATM   38  C32 RAP  6544      -1.552  33.995 232.094  1.00 20.00     0.136 C 
HETATM   39  O11 RAP  6544      -1.552  35.190 231.783  1.00 20.00    -0.297 OA
HETATM   40  C33 RAP  6544      -1.456  32.885 231.054  1.00 20.00     0.112 C 
HETATM   41  C34 RAP  6544      -0.482  33.220 229.942  1.00 20.00     0.142 C 
HETATM   42  C43 RAP  6544      -4.518  31.777 225.147  1.00 20.00     0.016 C 
HETATM   43  C44 RAP  6544      -6.450  33.908 233.545  1.00 20.00     0.046 C 
HETATM   44  C45 RAP  6544      -1.713  30.703 240.230  1.00 20.00     0.014 C 
HETATM   45  C46 RAP  6544       0.475  33.985 237.820  1.00 20.00     0.018 C 
HETATM   46  C47 RAP  6544      -0.552  30.601 233.938  1.00 20.00     0.046 C 
HETATM   47  C48 RAP  6544      -2.032  34.698 234.453  1.00 20.00     0.022 C 
ENDROOT
BRANCH  41  48
HETATM   48  C35 RAP  6544       0.074  32.069 229.081  1.00 20.00     0.012 C 
HETATM   49  C49 RAP  6544       0.447  30.871 229.907  1.00 20.00     0.012 C 
BRANCH  48  50
HETATM   50  C36 RAP  6544       1.254  32.512 228.219  1.00 20.00     0.011 C 
BRANCH  50  51
HETATM   51  C37 RAP  6544       1.438  31.815 226.869  1.00 20.00    -0.012 C 
HETATM   52  C42 RAP  6544       2.853  31.320 226.574  1.00 20.00     0.007 C 
HETATM   53  C41 RAP  6544       2.950  30.595 225.239  1.00 20.00     0.035 C 
HETATM   54  C40 RAP  6544       2.414  31.477 224.093  1.00 20.00     0.147 C 
HETATM   55  C39 RAP  6544       0.976  32.039 224.367  1.00 20.00     0.150 C 
HETATM   56  C38 RAP  6544       0.933  32.719 225.738  1.00 20.00     0.039 C 
BRANCH  54  57
HETATM   57  O13 RAP  6544       2.395  30.715 222.887  1.00 20.00    -0.393 OA
ATOM     58  H13 RAP  6544       2.509  31.301 222.148  1.00  0.00     0.210 HD
ENDBRANCH  54  57
BRANCH  55  59
HETATM   59  O12 RAP  6544       0.648  33.026 223.422  1.00 20.00    -0.388 OA
HETATM   60  C52 RAP  6544      -0.700  33.218 223.163  1.00 20.00     0.202 C 
ENDBRANCH  55  59
ENDBRANCH  50  51
ENDBRANCH  48  50
ENDBRANCH  41  48
BRANCH  34  61
HETATM   61  O10 RAP  6544       2.521  32.771 234.481  1.00 20.00    -0.388 OA
ATOM     62  H10 RAP  6544       1.908  33.492 234.402  1.00  0.00     0.210 HD
ENDBRANCH  34  61
BRANCH  33  63
HETATM   63  O9  RAP  6544       3.149  30.323 236.018  1.00 20.00    -0.380 OA
HETATM   64  C51 RAP  6544       3.286  29.359 237.003  1.00 20.00     0.202 C 
ENDBRANCH  33  63
BRANCH  14  65
HETATM   65  O6  RAP  6544      -6.798  33.136 226.551  1.00 20.00    -0.359 OA
ATOM     66  H6  RAP  6544      -6.735  32.757 225.682  1.00  0.00     0.213 HD
ENDBRANCH  14  65
BRANCH  21  67
HETATM   67  O7  RAP  6544      -7.529  31.974 231.683  1.00 20.00    -0.386 OA
HETATM   68  C50 RAP  6544      -8.101  30.706 231.630  1.00 20.00     0.202 C 
ENDBRANCH  21  67
TORSDOF 9
ENDMDL
MODEL 8
REMARK VINA RESULT:      -5.6      4.936     10.984
REMARK  9 active torsions:
REMARK  status: ('A' for Active; 'I' for Inactive)
REMARK    1  A    between atoms: C10_14  and  O6_16 
REMARK    2  A    between atoms: C16_23  and  O7_24 
REMARK    3  A    between atoms: C27_36  and  O9_37 
REMARK    4  A    between atoms: C28_38  and  O10_39 
REMARK    5  A    between atoms: C34_47  and  C35_48 
REMARK    6  A    between atoms: C35_48  and  C36_49 
REMARK    7  A    between atoms: C36_49  and  C37_50 
REMARK    8  A    between atoms: C39_52  and  O12_53 
REMARK    9  A    between atoms: C40_54  and  O13_55 
ROOT
HETATM    1  C1  RAP  6544      -1.293  35.088 236.256  1.00 20.00     0.282 C 
HETATM    2  O1  RAP  6544      -1.475  33.787 235.712  1.00 20.00    -0.314 OA
HETATM    3  O2  RAP  6544      -2.294  35.718 236.593  1.00 20.00    -0.263 OA
HETATM    4  C2  RAP  6544       0.093  35.695 236.464  1.00 20.00     0.187 C 
HETATM    5  C3  RAP  6544       0.128  37.148 236.014  1.00 20.00     0.035 C 
HETATM    6  C4  RAP  6544       0.155  37.318 234.502  1.00 20.00     0.004 C 
HETATM    7  C5  RAP  6544       1.330  36.526 233.958  1.00 20.00     0.020 C 
HETATM    8  C6  RAP  6544       1.218  35.080 234.331  1.00 20.00     0.127 C 
HETATM    9  N7  RAP  6544       1.198  34.996 235.800  1.00 20.00    -0.331 N 
HETATM   10  C8  RAP  6544       2.011  34.189 236.500  1.00 20.00     0.296 C 
HETATM   11  O3  RAP  6544       1.854  34.117 237.726  1.00 20.00    -0.264 OA
HETATM   12  C9  RAP  6544       3.084  33.484 235.914  1.00 20.00     0.278 C 
HETATM   13  O4  RAP  6544       4.181  34.046 235.796  1.00 20.00    -0.281 OA
HETATM   14  C10 RAP  6544       2.944  32.033 235.417  1.00 20.00     0.238 C 
HETATM   15  O5  RAP  6544       2.245  32.122 234.196  1.00 20.00    -0.343 OA
HETATM   16  C11 RAP  6544       2.138  31.103 236.411  1.00 20.00     0.053 C 
HETATM   17  C12 RAP  6544       1.754  29.765 235.739  1.00 20.00     0.013 C 
HETATM   18  C13 RAP  6544       1.116  30.015 234.380  1.00 20.00     0.033 C 
HETATM   19  C14 RAP  6544       1.912  30.975 233.502  1.00 20.00     0.128 C 
HETATM   20  C15 RAP  6544       1.044  31.455 232.351  1.00 20.00     0.068 C 
HETATM   21  C16 RAP  6544       0.702  30.428 231.279  1.00 20.00     0.152 C 
HETATM   22  C17 RAP  6544      -0.194  31.021 230.212  1.00 20.00    -0.055 C 
HETATM   23  C18 RAP  6544      -1.434  30.564 230.103  1.00 20.00     0.005 C 
HETATM   24  C19 RAP  6544      -2.428  31.058 229.140  1.00 20.00     0.000 C 
HETATM   25  C20 RAP  6544      -3.622  30.482 229.092  1.00 20.00    -0.000 C 
HETATM   26  C21 RAP  6544      -4.688  31.004 228.217  1.00 20.00    -0.004 C 
HETATM   27  C22 RAP  6544      -5.933  30.575 228.306  1.00 20.00    -0.022 C 
HETATM   28  C23 RAP  6544      -7.088  31.148 227.514  1.00 20.00     0.005 C 
HETATM   29  C24 RAP  6544      -8.133  31.587 228.524  1.00 20.00     0.020 C 
HETATM   30  C25 RAP  6544      -7.676  32.510 229.638  1.00 20.00     0.055 C 
HETATM   31  C26 RAP  6544      -8.653  32.475 230.806  1.00 20.00     0.162 C 
HETATM   32  O8  RAP  6544      -9.642  33.204 230.837  1.00 20.00    -0.295 OA
HETATM   33  C27 RAP  6544      -8.336  31.501 231.935  1.00 20.00     0.223 C 
HETATM   34  C28 RAP  6544      -7.326  32.069 232.984  1.00 20.00     0.183 C 
HETATM   35  C29 RAP  6544      -5.853  31.955 232.546  1.00 20.00    -0.056 C 
HETATM   36  C30 RAP  6544      -5.107  33.010 232.221  1.00 20.00    -0.010 C 
HETATM   37  C31 RAP  6544      -3.629  33.078 231.810  1.00 20.00     0.074 C 
HETATM   38  C32 RAP  6544      -2.792  33.577 232.988  1.00 20.00     0.136 C 
HETATM   39  O11 RAP  6544      -2.368  34.735 233.048  1.00 20.00    -0.297 OA
HETATM   40  C33 RAP  6544      -2.564  32.570 234.110  1.00 20.00     0.112 C 
HETATM   41  C34 RAP  6544      -2.706  33.195 235.483  1.00 20.00     0.142 C 
HETATM   42  C43 RAP  6544       2.822  30.849 237.786  1.00 20.00     0.016 C 
HETATM   43  C44 RAP  6544       0.449  32.100 229.324  1.00 20.00     0.046 C 
HETATM   44  C45 RAP  6544      -7.663  30.112 226.560  1.00 20.00     0.014 C 
HETATM   45  C46 RAP  6544      -7.476  33.944 229.138  1.00 20.00     0.018 C 
HETATM   46  C47 RAP  6544      -5.325  30.533 232.501  1.00 20.00     0.046 C 
HETATM   47  C48 RAP  6544      -3.487  34.046 230.625  1.00 20.00     0.022 C 
ENDROOT
BRANCH  41  48
HETATM   48  C35 RAP  6544      -2.960  32.269 236.689  1.00 20.00     0.012 C 
HETATM   49  C49 RAP  6544      -1.801  32.251 237.645  1.00 20.00     0.012 C 
BRANCH  48  50
HETATM   50  C36 RAP  6544      -3.322  30.850 236.259  1.00 20.00     0.011 C 
BRANCH  50  51
HETATM   51  C37 RAP  6544      -4.571  30.225 236.882  1.00 20.00    -0.012 C 
HETATM   52  C42 RAP  6544      -5.900  30.657 236.261  1.00 20.00     0.007 C 
HETATM   53  C41 RAP  6544      -7.094  29.959 236.897  1.00 20.00     0.035 C 
HETATM   54  C40 RAP  6544      -7.098  30.159 238.426  1.00 20.00     0.147 C 
HETATM   55  C39 RAP  6544      -5.741  29.762 239.105  1.00 20.00     0.150 C 
HETATM   56  C38 RAP  6544      -4.579  30.462 238.397  1.00 20.00     0.039 C 
BRANCH  54  57
HETATM   57  O13 RAP  6544      -8.149  29.380 238.995  1.00 20.00    -0.393 OA
ATOM     58  H13 RAP  6544      -8.981  29.681 238.649  1.00  0.00     0.210 HD
ENDBRANCH  54  57
BRANCH  55  59
HETATM   59  O12 RAP  6544      -5.716  30.199 240.440  1.00 20.00    -0.388 OA
HETATM   60  C52 RAP  6544      -4.770  31.159 240.764  1.00 20.00     0.202 C 
ENDBRANCH  55  59
ENDBRANCH  50  51
ENDBRANCH  48  50
ENDBRANCH  41  48
BRANCH  34  61
HETATM   61  O10 RAP  6544      -7.662  33.446 233.204  1.00 20.00    -0.388 OA
ATOM     62  H10 RAP  6544      -7.017  33.806 233.801  1.00  0.00     0.210 HD
ENDBRANCH  34  61
BRANCH  33  63
HETATM   63  O9  RAP  6544      -9.521  31.218 232.630  1.00 20.00    -0.380 OA
HETATM   64  C51 RAP  6544      -9.357  30.666 233.890  1.00 20.00     0.202 C 
ENDBRANCH  33  63
BRANCH  14  65
HETATM   65  O6  RAP  6544       4.251  31.485 235.224  1.00 20.00    -0.359 OA
ATOM     66  H6  RAP  6544       4.694  31.447 236.063  1.00  0.00     0.213 HD
ENDBRANCH  14  65
BRANCH  21  67
HETATM   67  O7  RAP  6544       1.895  30.004 230.698  1.00 20.00    -0.386 OA
HETATM   68  C50 RAP  6544       1.791  29.379 229.458  1.00 20.00     0.202 C 
ENDBRANCH  21  67
TORSDOF 9
ENDMDL
MODEL 9
REMARK VINA RESULT:      -5.4      3.719     10.199
REMARK  9 active torsions:
REMARK  status: ('A' for Active; 'I' for Inactive)
REMARK    1  A    between atoms: C10_14  and  O6_16 
REMARK    2  A    between atoms: C16_23  and  O7_24 
REMARK    3  A    between atoms: C27_36  and  O9_37 
REMARK    4  A    between atoms: C28_38  and  O10_39 
REMARK    5  A    between atoms: C34_47  and  C35_48 
REMARK    6  A    between atoms: C35_48  and  C36_49 
REMARK    7  A    between atoms: C36_49  and  C37_50 
REMARK    8  A    between atoms: C39_52  and  O12_53 
REMARK    9  A    between atoms: C40_54  and  O13_55 
ROOT
HETATM    1  C1  RAP  6544       1.942  32.738 235.036  1.00 20.00     0.282 C 
HETATM    2  O1  RAP  6544       0.851  33.271 234.297  1.00 20.00    -0.314 OA
HETATM    3  O2  RAP  6544       3.076  32.895 234.587  1.00 20.00    -0.263 OA
HETATM    4  C2  RAP  6544       1.746  32.021 236.371  1.00 20.00     0.187 C 
HETATM    5  C3  RAP  6544       2.593  30.759 236.444  1.00 20.00     0.035 C 
HETATM    6  C4  RAP  6544       2.045  29.607 235.615  1.00 20.00     0.004 C 
HETATM    7  C5  RAP  6544       0.611  29.354 236.045  1.00 20.00     0.020 C 
HETATM    8  C6  RAP  6544      -0.223  30.585 235.867  1.00 20.00     0.127 C 
HETATM    9  N7  RAP  6544       0.365  31.650 236.694  1.00 20.00    -0.331 N 
HETATM   10  C8  RAP  6544      -0.348  32.379 237.568  1.00 20.00     0.296 C 
HETATM   11  O3  RAP  6544       0.216  33.316 238.149  1.00 20.00    -0.264 OA
HETATM   12  C9  RAP  6544      -1.683  32.076 237.912  1.00 20.00     0.278 C 
HETATM   13  O4  RAP  6544      -1.901  31.263 238.819  1.00 20.00    -0.281 OA
HETATM   14  C10 RAP  6544      -2.885  32.724 237.201  1.00 20.00     0.238 C 
HETATM   15  O5  RAP  6544      -2.983  32.068 235.958  1.00 20.00    -0.343 OA
HETATM   16  C11 RAP  6544      -2.708  34.278 236.956  1.00 20.00     0.053 C 
HETATM   17  C12 RAP  6544      -3.775  34.816 235.975  1.00 20.00     0.013 C 
HETATM   18  C13 RAP  6544      -3.848  33.939 234.734  1.00 20.00     0.033 C 
HETATM   19  C14 RAP  6544      -3.948  32.449 235.045  1.00 20.00     0.128 C 
HETATM   20  C15 RAP  6544      -3.641  31.643 233.795  1.00 20.00     0.068 C 
HETATM   21  C16 RAP  6544      -4.678  31.692 232.679  1.00 20.00     0.152 C 
HETATM   22  C17 RAP  6544      -4.236  30.879 231.480  1.00 20.00    -0.055 C 
HETATM   23  C18 RAP  6544      -3.965  31.517 230.350  1.00 20.00     0.005 C 
HETATM   24  C19 RAP  6544      -3.500  30.872 229.114  1.00 20.00     0.000 C 
HETATM   25  C20 RAP  6544      -3.313  31.613 228.031  1.00 20.00    -0.000 C 
HETATM   26  C21 RAP  6544      -2.752  31.035 226.795  1.00 20.00    -0.004 C 
HETATM   27  C22 RAP  6544      -2.371  31.791 225.784  1.00 20.00    -0.022 C 
HETATM   28  C23 RAP  6544      -1.688  31.265 224.539  1.00 20.00     0.005 C 
HETATM   29  C24 RAP  6544      -0.378  32.022 224.410  1.00 20.00     0.020 C 
HETATM   30  C25 RAP  6544       0.541  32.031 225.617  1.00 20.00     0.055 C 
HETATM   31  C26 RAP  6544       1.537  33.178 225.531  1.00 20.00     0.162 C 
HETATM   32  O8  RAP  6544       2.603  33.059 224.932  1.00 20.00    -0.295 OA
HETATM   33  C27 RAP  6544       1.149  34.476 226.233  1.00 20.00     0.223 C 
HETATM   34  C28 RAP  6544       1.489  34.485 227.758  1.00 20.00     0.183 C 
HETATM   35  C29 RAP  6544       0.440  33.766 228.628  1.00 20.00    -0.056 C 
HETATM   36  C30 RAP  6544       0.677  32.609 229.246  1.00 20.00    -0.010 C 
HETATM   37  C31 RAP  6544      -0.230  31.788 230.174  1.00 20.00     0.074 C 
HETATM   38  C32 RAP  6544       0.206  31.988 231.625  1.00 20.00     0.136 C 
HETATM   39  O11 RAP  6544       0.854  31.136 232.239  1.00 20.00    -0.297 OA
HETATM   40  C33 RAP  6544      -0.162  33.331 232.246  1.00 20.00     0.112 C 
HETATM   41  C34 RAP  6544       0.967  33.911 233.074  1.00 20.00     0.142 C 
HETATM   42  C43 RAP  6544      -2.655  35.152 238.243  1.00 20.00     0.016 C 
HETATM   43  C44 RAP  6544      -4.174  29.357 231.693  1.00 20.00     0.046 C 
HETATM   44  C45 RAP  6544      -2.558  31.479 223.309  1.00 20.00     0.014 C 
HETATM   45  C46 RAP  6544       1.265  30.692 225.787  1.00 20.00     0.018 C 
HETATM   46  C47 RAP  6544      -0.896  34.480 228.711  1.00 20.00     0.046 C 
HETATM   47  C48 RAP  6544      -0.114  30.303 229.797  1.00 20.00     0.022 C 
ENDROOT
BRANCH  41  48
HETATM   48  C35 RAP  6544       0.949  35.421 233.385  1.00 20.00     0.012 C 
HETATM   49  C49 RAP  6544       0.183  36.203 232.357  1.00 20.00     0.012 C 
BRANCH  48  50
HETATM   50  C36 RAP  6544       2.355  35.991 233.553  1.00 20.00     0.011 C 
BRANCH  50  51
HETATM   51  C37 RAP  6544       2.746  36.498 234.943  1.00 20.00    -0.012 C 
HETATM   52  C42 RAP  6544       3.533  35.510 235.804  1.00 20.00     0.007 C 
HETATM   53  C41 RAP  6544       3.928  36.099 237.151  1.00 20.00     0.035 C 
HETATM   54  C40 RAP  6544       2.693  36.637 237.901  1.00 20.00     0.147 C 
HETATM   55  C39 RAP  6544       1.833  37.629 237.043  1.00 20.00     0.150 C 
HETATM   56  C38 RAP  6544       1.502  36.996 235.690  1.00 20.00     0.039 C 
BRANCH  54  57
HETATM   57  O13 RAP  6544       3.121  37.300 239.090  1.00 20.00    -0.393 OA
ATOM     58  H13 RAP  6544       2.947  38.230 239.006  1.00  0.00     0.210 HD
ENDBRANCH  54  57
BRANCH  55  59
HETATM   59  O12 RAP  6544       0.604  37.882 237.676  1.00 20.00    -0.388 OA
HETATM   60  C52 RAP  6544      -0.510  37.981 236.856  1.00 20.00     0.202 C 
ENDBRANCH  55  59
ENDBRANCH  50  51
ENDBRANCH  48  50
ENDBRANCH  41  48
BRANCH  34  61
HETATM   61  O10 RAP  6544       2.768  33.854 227.919  1.00 20.00    -0.388 OA
ATOM     62  H10 RAP  6544       3.259  34.361 228.556  1.00  0.00     0.210 HD
ENDBRANCH  34  61
BRANCH  33  63
HETATM   63  O9  RAP  6544       1.870  35.532 225.655  1.00 20.00    -0.380 OA
HETATM   64  C51 RAP  6544       2.260  36.536 226.526  1.00 20.00     0.202 C 
ENDBRANCH  33  63
BRANCH  14  65
HETATM   65  O6  RAP  6544      -4.058  32.510 237.992  1.00 20.00    -0.359 OA
ATOM     66  H6  RAP  6544      -3.903  32.848 238.866  1.00  0.00     0.213 HD
ENDBRANCH  14  65
BRANCH  21  67
HETATM   67  O7  RAP  6544      -5.868  31.170 233.180  1.00 20.00    -0.386 OA
HETATM   68  C50 RAP  6544      -7.012  31.936 232.977  1.00 20.00     0.202 C 
ENDBRANCH  21  67
TORSDOF 9
ENDMDL
