MODEL 1
REMARK VINA RESULT:      -6.3      0.000      0.000
REMARK  4 active torsions:
REMARK  status: ('A' for Active; 'I' for Inactive)
REMARK    1  A    between atoms: C1_2  and  O2_3 
REMARK    2  A    between atoms: C1_2  and  C2_4 
REMARK    3  A    between atoms: C7_9  and  N1_10 
REMARK    4  A    between atoms: N1_10  and  C8_11 
ROOT
ATOM      1  C2  UNK     1       2.549  36.885 237.268  1.00  0.00     0.064 A 
ATOM      2  C3  UNK     1       1.374  37.634 237.402  1.00  0.00     0.020 A 
ATOM      3  C4  UNK     1       0.188  37.212 236.806  1.00  0.00     0.001 A 
ATOM      4  C5  UNK     1       0.144  36.035 236.062  1.00  0.00     0.002 A 
ATOM      5  C6  UNK     1       1.289  35.248 235.891  1.00  0.00     0.030 A 
ATOM      6  C7  UNK     1       2.535  35.619 236.441  1.00  0.00     0.049 A 
ENDROOT
BRANCH   6   7
ATOM      7  N1  UNK     1       3.730  34.921 236.330  1.00  0.00    -0.355 N 
ATOM      8  H6  UNK     1       4.574  35.390 236.068  1.00  0.00     0.166 HD
BRANCH   7   9
ATOM      9  C8  UNK     1       3.731  33.584 236.584  1.00  0.00     0.039 A 
ATOM     10  C9  UNK     1       4.116  33.025 237.924  1.00  0.00    -0.029 A 
ATOM     11  C10 UNK     1       4.239  33.901 239.152  1.00  0.00     0.051 C 
ATOM     12  C14 UNK     1       4.349  31.553 238.028  1.00  0.00    -0.054 A 
ATOM     13  C13 UNK     1       4.230  30.759 236.888  1.00  0.00     0.007 A 
ATOM     14  C15 UNK     1       4.706  30.912 239.345  1.00  0.00     0.049 C 
ATOM     15  C12 UNK     1       3.903  31.325 235.654  1.00  0.00     0.003 A 
ATOM     16  C11 UNK     1       3.677  32.701 235.499  1.00  0.00     0.030 A 
ENDBRANCH   7   9
ENDBRANCH   6   7
BRANCH   1  17
ATOM     17  C1  UNK     1       3.827  37.393 237.925  1.00  0.00     0.178 C 
ATOM     18  O1  UNK     1       3.896  37.435 239.180  1.00  0.00    -0.646 OA
BRANCH  17  19
ATOM     19  O2  UNK     1       4.794  37.791 237.222  1.00  0.00    -0.773 OA
ATOM     20  H1  UNK     1       4.494  38.465 236.623  1.00  0.00     0.167 HD
ENDBRANCH  17  19
ENDBRANCH   1  17
TORSDOF 4
ENDMDL
MODEL 2
REMARK VINA RESULT:      -6.2     11.292     13.234
REMARK  4 active torsions:
REMARK  status: ('A' for Active; 'I' for Inactive)
REMARK    1  A    between atoms: C1_2  and  O2_3 
REMARK    2  A    between atoms: C1_2  and  C2_4 
REMARK    3  A    between atoms: C7_9  and  N1_10 
REMARK    4  A    between atoms: N1_10  and  C8_11 
ROOT
ATOM      1  C2  UNK     1       1.523  41.405 227.224  1.00  0.00     0.064 A 
ATOM      2  C3  UNK     1       2.858  41.006 227.092  1.00  0.00     0.020 A 
ATOM      3  C4  UNK     1       3.203  39.657 227.124  1.00  0.00     0.001 A 
ATOM      4  C5  UNK     1       2.229  38.676 227.289  1.00  0.00     0.002 A 
ATOM      5  C6  UNK     1       0.879  39.017 227.431  1.00  0.00     0.030 A 
ATOM      6  C7  UNK     1       0.449  40.362 227.434  1.00  0.00     0.049 A 
ENDROOT
BRANCH   6   7
ATOM      7  N1  UNK     1      -0.856  40.814 227.573  1.00  0.00    -0.355 N 
ATOM      8  H6  UNK     1      -1.045  41.731 227.926  1.00  0.00     0.166 HD
BRANCH   7   9
ATOM      9  C8  UNK     1      -1.875  39.984 227.221  1.00  0.00     0.039 A 
ATOM     10  C9  UNK     1      -2.636  40.153 225.936  1.00  0.00    -0.029 A 
ATOM     11  C10 UNK     1      -2.142  41.054 224.826  1.00  0.00     0.051 C 
ATOM     12  C14 UNK     1      -3.899  39.374 225.763  1.00  0.00    -0.054 A 
ATOM     13  C13 UNK     1      -4.339  38.546 226.795  1.00  0.00     0.007 A 
ATOM     14  C15 UNK     1      -4.701  39.464 224.491  1.00  0.00     0.049 C 
ATOM     15  C12 UNK     1      -3.618  38.443 227.986  1.00  0.00     0.003 A 
ATOM     16  C11 UNK     1      -2.429  39.155 228.203  1.00  0.00     0.030 A 
ENDBRANCH   7   9
ENDBRANCH   6   7
BRANCH   1  17
ATOM     17  C1  UNK     1       1.193  42.894 227.198  1.00  0.00     0.178 C 
ATOM     18  O1  UNK     1       0.466  43.344 226.277  1.00  0.00    -0.646 OA
BRANCH  17  19
ATOM     19  O2  UNK     1       1.664  43.670 228.072  1.00  0.00    -0.773 OA
ATOM     20  H1  UNK     1       0.982  43.901 228.692  1.00  0.00     0.167 HD
ENDBRANCH  17  19
ENDBRANCH   1  17
TORSDOF 4
ENDMDL
MODEL 3
REMARK VINA RESULT:      -6.1      2.957      4.523
REMARK  4 active torsions:
REMARK  status: ('A' for Active; 'I' for Inactive)
REMARK    1  A    between atoms: C1_2  and  O2_3 
REMARK    2  A    between atoms: C1_2  and  C2_4 
REMARK    3  A    between atoms: C7_9  and  N1_10 
REMARK    4  A    between atoms: N1_10  and  C8_11 
ROOT
ATOM      1  C2  UNK     1       2.170  36.299 236.611  1.00  0.00     0.064 A 
ATOM      2  C3  UNK     1       1.736  37.436 237.301  1.00  0.00     0.020 A 
ATOM      3  C4  UNK     1       0.407  37.847 237.232  1.00  0.00     0.001 A 
ATOM      4  C5  UNK     1      -0.520  37.137 236.472  1.00  0.00     0.002 A 
ATOM      5  C6  UNK     1      -0.141  35.994 235.757  1.00  0.00     0.030 A 
ATOM      6  C7  UNK     1       1.191  35.526 235.756  1.00  0.00     0.049 A 
ENDROOT
BRANCH   6   7
ATOM      7  N1  UNK     1       1.677  34.414 235.081  1.00  0.00    -0.355 N 
ATOM      8  H6  UNK     1       2.316  33.786 235.526  1.00  0.00     0.166 HD
BRANCH   7   9
ATOM      9  C8  UNK     1       1.267  34.196 233.803  1.00  0.00     0.039 A 
ATOM     10  C9  UNK     1       0.998  32.815 233.274  1.00  0.00    -0.029 A 
ATOM     11  C10 UNK     1       0.878  31.617 234.190  1.00  0.00     0.051 C 
ATOM     12  C14 UNK     1       0.819  32.653 231.800  1.00  0.00    -0.054 A 
ATOM     13  C13 UNK     1       0.931  33.768 230.970  1.00  0.00     0.007 A 
ATOM     14  C15 UNK     1       0.514  31.306 231.196  1.00  0.00     0.049 C 
ATOM     15  C12 UNK     1       1.214  35.028 231.500  1.00  0.00     0.003 A 
ATOM     16  C11 UNK     1       1.396  35.236 232.876  1.00  0.00     0.030 A 
ENDBRANCH   7   9
ENDBRANCH   6   7
BRANCH   1  17
ATOM     17  C1  UNK     1       3.637  35.895 236.705  1.00  0.00     0.178 C 
ATOM     18  O1  UNK     1       3.937  34.674 236.721  1.00  0.00    -0.646 OA
BRANCH  17  19
ATOM     19  O2  UNK     1       4.539  36.771 236.792  1.00  0.00    -0.773 OA
ATOM     20  H1  UNK     1       5.317  36.388 237.180  1.00  0.00     0.167 HD
ENDBRANCH  17  19
ENDBRANCH   1  17
TORSDOF 4
ENDMDL
MODEL 4
REMARK VINA RESULT:      -6.0      2.652      4.113
REMARK  4 active torsions:
REMARK  status: ('A' for Active; 'I' for Inactive)
REMARK    1  A    between atoms: C1_2  and  O2_3 
REMARK    2  A    between atoms: C1_2  and  C2_4 
REMARK    3  A    between atoms: C7_9  and  N1_10 
REMARK    4  A    between atoms: N1_10  and  C8_11 
ROOT
ATOM      1  C2  UNK     1       0.465  36.260 235.009  1.00  0.00     0.064 A 
ATOM      2  C3  UNK     1      -0.912  36.465 235.151  1.00  0.00     0.020 A 
ATOM      3  C4  UNK     1      -1.406  37.336 236.119  1.00  0.00     0.001 A 
ATOM      4  C5  UNK     1      -0.541  38.022 236.968  1.00  0.00     0.002 A 
ATOM      5  C6  UNK     1       0.846  37.852 236.875  1.00  0.00     0.030 A 
ATOM      6  C7  UNK     1       1.425  36.970 235.937  1.00  0.00     0.049 A 
ENDROOT
BRANCH   6   7
ATOM      7  N1  UNK     1       2.780  36.721 235.762  1.00  0.00    -0.355 N 
ATOM      8  H6  UNK     1       3.198  36.785 234.856  1.00  0.00     0.166 HD
BRANCH   7   9
ATOM      9  C8  UNK     1       3.527  36.388 236.848  1.00  0.00     0.039 A 
ATOM     10  C9  UNK     1       3.543  34.995 237.413  1.00  0.00    -0.029 A 
ATOM     11  C10 UNK     1       2.974  33.817 236.652  1.00  0.00     0.051 C 
ATOM     12  C14 UNK     1       4.170  34.790 238.752  1.00  0.00    -0.054 A 
ATOM     13  C13 UNK     1       4.691  35.885 239.440  1.00  0.00     0.007 A 
ATOM     14  C15 UNK     1       4.254  33.417 239.371  1.00  0.00     0.049 C 
ATOM     15  C12 UNK     1       4.627  37.168 238.893  1.00  0.00     0.003 A 
ATOM     16  C11 UNK     1       4.045  37.418 237.641  1.00  0.00     0.030 A 
ENDBRANCH   7   9
ENDBRANCH   6   7
BRANCH   1  17
ATOM     17  C1  UNK     1       0.960  35.287 233.944  1.00  0.00     0.178 C 
ATOM     18  O1  UNK     1       1.730  35.704 233.042  1.00  0.00    -0.646 OA
BRANCH  17  19
ATOM     19  O2  UNK     1       0.583  34.084 233.952  1.00  0.00    -0.773 OA
ATOM     20  H1  UNK     1      -0.167  33.990 234.527  1.00  0.00     0.167 HD
ENDBRANCH  17  19
ENDBRANCH   1  17
TORSDOF 4
ENDMDL
MODEL 5
REMARK VINA RESULT:      -6.0      1.597      2.375
REMARK  4 active torsions:
REMARK  status: ('A' for Active; 'I' for Inactive)
REMARK    1  A    between atoms: C1_2  and  O2_3 
REMARK    2  A    between atoms: C1_2  and  C2_4 
REMARK    3  A    between atoms: C7_9  and  N1_10 
REMARK    4  A    between atoms: N1_10  and  C8_11 
ROOT
ATOM      1  C2  UNK     1       1.604  37.093 236.826  1.00  0.00     0.064 A 
ATOM      2  C3  UNK     1       0.625  37.884 237.438  1.00  0.00     0.020 A 
ATOM      3  C4  UNK     1      -0.678  37.911 236.948  1.00  0.00     0.001 A 
ATOM      4  C5  UNK     1      -1.036  37.154 235.835  1.00  0.00     0.002 A 
ATOM      5  C6  UNK     1      -0.097  36.348 235.179  1.00  0.00     0.030 A 
ATOM      6  C7  UNK     1       1.249  36.283 235.600  1.00  0.00     0.049 A 
ENDROOT
BRANCH   6   7
ATOM      7  N1  UNK     1       2.260  35.527 235.023  1.00  0.00    -0.355 N 
ATOM      8  H6  UNK     1       3.116  35.955 234.732  1.00  0.00     0.166 HD
BRANCH   7   9
ATOM      9  C8  UNK     1       2.064  34.190 234.862  1.00  0.00     0.039 A 
ATOM     10  C9  UNK     1       2.929  33.167 235.542  1.00  0.00    -0.029 A 
ATOM     11  C10 UNK     1       3.870  33.536 236.669  1.00  0.00     0.051 C 
ATOM     12  C14 UNK     1       2.814  31.746 235.097  1.00  0.00    -0.054 A 
ATOM     13  C13 UNK     1       1.941  31.422 234.059  1.00  0.00     0.007 A 
ATOM     14  C15 UNK     1       3.623  30.657 235.753  1.00  0.00     0.049 C 
ATOM     15  C12 UNK     1       1.180  32.410 233.431  1.00  0.00     0.003 A 
ATOM     16  C11 UNK     1       1.251  33.760 233.807  1.00  0.00     0.030 A 
ENDBRANCH   7   9
ENDBRANCH   6   7
BRANCH   1  17
ATOM     17  C1  UNK     1       3.021  37.105 237.390  1.00  0.00     0.178 C 
ATOM     18  O1  UNK     1       3.185  37.099 238.636  1.00  0.00    -0.646 OA
BRANCH  17  19
ATOM     19  O2  UNK     1       4.017  37.147 236.618  1.00  0.00    -0.773 OA
ATOM     20  H1  UNK     1       3.842  36.623 235.845  1.00  0.00     0.167 HD
ENDBRANCH  17  19
ENDBRANCH   1  17
TORSDOF 4
ENDMDL
MODEL 6
REMARK VINA RESULT:      -6.0      3.947      6.103
REMARK  4 active torsions:
REMARK  status: ('A' for Active; 'I' for Inactive)
REMARK    1  A    between atoms: C1_2  and  O2_3 
REMARK    2  A    between atoms: C1_2  and  C2_4 
REMARK    3  A    between atoms: C7_9  and  N1_10 
REMARK    4  A    between atoms: N1_10  and  C8_11 
ROOT
ATOM      1  C2  UNK     1       0.844  32.735 232.979  1.00  0.00     0.064 A 
ATOM      2  C3  UNK     1       0.772  32.625 231.586  1.00  0.00     0.020 A 
ATOM      3  C4  UNK     1       0.961  33.740 230.772  1.00  0.00     0.001 A 
ATOM      4  C5  UNK     1       1.223  34.990 231.327  1.00  0.00     0.002 A 
ATOM      5  C6  UNK     1       1.300  35.161 232.715  1.00  0.00     0.030 A 
ATOM      6  C7  UNK     1       1.098  34.087 233.608  1.00  0.00     0.049 A 
ENDROOT
BRANCH   6   7
ATOM      7  N1  UNK     1       1.145  34.143 234.994  1.00  0.00    -0.355 N 
ATOM      8  H6  UNK     1       1.081  33.308 235.542  1.00  0.00     0.166 HD
BRANCH   7   9
ATOM      9  C8  UNK     1       1.280  35.357 235.593  1.00  0.00     0.039 A 
ATOM     10  C9  UNK     1       2.580  35.810 236.197  1.00  0.00    -0.029 A 
ATOM     11  C10 UNK     1       3.883  35.091 235.925  1.00  0.00     0.051 C 
ATOM     12  C14 UNK     1       2.562  37.027 237.064  1.00  0.00    -0.054 A 
ATOM     13  C13 UNK     1       1.353  37.680 237.303  1.00  0.00     0.007 A 
ATOM     14  C15 UNK     1       3.829  37.564 237.678  1.00  0.00     0.049 C 
ATOM     15  C12 UNK     1       0.163  37.205 236.748  1.00  0.00     0.003 A 
ATOM     16  C11 UNK     1       0.122  36.065 235.932  1.00  0.00     0.030 A 
ENDBRANCH   7   9
ENDBRANCH   6   7
BRANCH   1  17
ATOM     17  C1  UNK     1       0.617  31.491 233.830  1.00  0.00     0.178 C 
ATOM     18  O1  UNK     1       1.297  30.459 233.600  1.00  0.00    -0.646 OA
BRANCH  17  19
ATOM     19  O2  UNK     1      -0.260  31.485 234.736  1.00  0.00    -0.773 OA
ATOM     20  H1  UNK     1      -1.123  31.525 234.342  1.00  0.00     0.167 HD
ENDBRANCH  17  19
ENDBRANCH   1  17
TORSDOF 4
ENDMDL
MODEL 7
REMARK VINA RESULT:      -6.0      3.972      4.961
REMARK  4 active torsions:
REMARK  status: ('A' for Active; 'I' for Inactive)
REMARK    1  A    between atoms: C1_2  and  O2_3 
REMARK    2  A    between atoms: C1_2  and  C2_4 
REMARK    3  A    between atoms: C7_9  and  N1_10 
REMARK    4  A    between atoms: N1_10  and  C8_11 
ROOT
ATOM      1  C2  UNK     1       0.399  37.419 236.422  1.00  0.00     0.064 A 
ATOM      2  C3  UNK     1       1.226  37.635 237.530  1.00  0.00     0.020 A 
ATOM      3  C4  UNK     1       2.552  37.210 237.522  1.00  0.00     0.001 A 
ATOM      4  C5  UNK     1       3.085  36.559 236.413  1.00  0.00     0.002 A 
ATOM      5  C6  UNK     1       2.303  36.311 235.278  1.00  0.00     0.030 A 
ATOM      6  C7  UNK     1       0.944  36.688 235.216  1.00  0.00     0.049 A 
ENDROOT
BRANCH   6   7
ATOM      7  N1  UNK     1       0.078  36.488 234.149  1.00  0.00    -0.355 N 
ATOM      8  H6  UNK     1      -0.567  37.202 233.874  1.00  0.00     0.166 HD
BRANCH   7   9
ATOM      9  C8  UNK     1       0.123  35.301 233.486  1.00  0.00     0.039 A 
ATOM     10  C9  UNK     1      -0.211  33.997 234.155  1.00  0.00    -0.029 A 
ATOM     11  C10 UNK     1      -0.897  33.942 235.503  1.00  0.00     0.051 C 
ATOM     12  C14 UNK     1       0.127  32.734 233.434  1.00  0.00    -0.054 A 
ATOM     13  C13 UNK     1       0.757  32.802 232.191  1.00  0.00     0.007 A 
ATOM     14  C15 UNK     1      -0.206  31.388 234.024  1.00  0.00     0.049 C 
ATOM     15  C12 UNK     1       1.079  34.035 231.621  1.00  0.00     0.003 A 
ATOM     16  C11 UNK     1       0.789  35.251 232.256  1.00  0.00     0.030 A 
ENDBRANCH   7   9
ENDBRANCH   6   7
BRANCH   1  17
ATOM     17  C1  UNK     1      -1.050  37.889 236.481  1.00  0.00     0.178 C 
ATOM     18  O1  UNK     1      -1.950  37.064 236.782  1.00  0.00    -0.646 OA
BRANCH  17  19
ATOM     19  O2  UNK     1      -1.348  39.082 236.207  1.00  0.00    -0.773 OA
ATOM     20  H1  UNK     1      -0.921  39.665 236.823  1.00  0.00     0.167 HD
ENDBRANCH  17  19
ENDBRANCH   1  17
TORSDOF 4
ENDMDL
MODEL 8
REMARK VINA RESULT:      -6.0      1.317      5.318
REMARK  4 active torsions:
REMARK  status: ('A' for Active; 'I' for Inactive)
REMARK    1  A    between atoms: C1_2  and  O2_3 
REMARK    2  A    between atoms: C1_2  and  C2_4 
REMARK    3  A    between atoms: C7_9  and  N1_10 
REMARK    4  A    between atoms: N1_10  and  C8_11 
ROOT
ATOM      1  C2  UNK     1       4.163  35.423 238.251  1.00  0.00     0.064 A 
ATOM      2  C3  UNK     1       4.639  34.406 239.086  1.00  0.00     0.020 A 
ATOM      3  C4  UNK     1       4.468  33.067 238.745  1.00  0.00     0.001 A 
ATOM      4  C5  UNK     1       3.818  32.709 237.567  1.00  0.00     0.002 A 
ATOM      5  C6  UNK     1       3.317  33.683 236.695  1.00  0.00     0.030 A 
ATOM      6  C7  UNK     1       3.428  35.062 236.980  1.00  0.00     0.049 A 
ENDROOT
BRANCH   6   7
ATOM      7  N1  UNK     1       2.964  36.109 236.194  1.00  0.00    -0.355 N 
ATOM      8  H6  UNK     1       3.589  36.618 235.601  1.00  0.00     0.166 HD
BRANCH   7   9
ATOM      9  C8  UNK     1       1.643  36.428 236.247  1.00  0.00     0.039 A 
ATOM     10  C9  UNK     1       0.676  36.012 235.176  1.00  0.00    -0.029 A 
ATOM     11  C10 UNK     1       1.033  34.973 234.135  1.00  0.00     0.051 C 
ATOM     12  C14 UNK     1      -0.682  36.633 235.179  1.00  0.00    -0.054 A 
ATOM     13  C13 UNK     1      -0.997  37.586 236.146  1.00  0.00     0.007 A 
ATOM     14  C15 UNK     1      -1.720  36.242 234.157  1.00  0.00     0.049 C 
ATOM     15  C12 UNK     1      -0.056  37.969 237.104  1.00  0.00     0.003 A 
ATOM     16  C11 UNK     1       1.235  37.421 237.145  1.00  0.00     0.030 A 
ENDBRANCH   7   9
ENDBRANCH   6   7
BRANCH   1  17
ATOM     17  C1  UNK     1       4.360  36.876 238.671  1.00  0.00     0.178 C 
ATOM     18  O1  UNK     1       3.862  37.273 239.754  1.00  0.00    -0.646 OA
BRANCH  17  19
ATOM     19  O2  UNK     1       4.992  37.676 237.931  1.00  0.00    -0.773 OA
ATOM     20  H1  UNK     1       5.130  38.495 238.394  1.00  0.00     0.167 HD
ENDBRANCH  17  19
ENDBRANCH   1  17
TORSDOF 4
ENDMDL
MODEL 9
REMARK VINA RESULT:      -5.9      3.481      5.351
REMARK  4 active torsions:
REMARK  status: ('A' for Active; 'I' for Inactive)
REMARK    1  A    between atoms: C1_2  and  O2_3 
REMARK    2  A    between atoms: C1_2  and  C2_4 
REMARK    3  A    between atoms: C7_9  and  N1_10 
REMARK    4  A    between atoms: N1_10  and  C8_11 
ROOT
ATOM      1  C2  UNK     1      -1.623  35.994 233.993  1.00  0.00     0.064 A 
ATOM      2  C3  UNK     1      -2.784  35.256 234.248  1.00  0.00     0.020 A 
ATOM      3  C4  UNK     1      -3.120  34.885 235.548  1.00  0.00     0.001 A 
ATOM      4  C5  UNK     1      -2.307  35.238 236.622  1.00  0.00     0.002 A 
ATOM      5  C6  UNK     1      -1.131  35.972 236.426  1.00  0.00     0.030 A 
ATOM      6  C7  UNK     1      -0.708  36.365 235.137  1.00  0.00     0.049 A 
ENDROOT
BRANCH   6   7
ATOM      7  N1  UNK     1       0.438  37.086 234.827  1.00  0.00    -0.355 N 
ATOM      8  H6  UNK     1       0.410  37.823 234.151  1.00  0.00     0.166 HD
BRANCH   7   9
ATOM      9  C8  UNK     1       1.599  36.769 235.461  1.00  0.00     0.039 A 
ATOM     10  C9  UNK     1       2.191  35.389 235.405  1.00  0.00    -0.029 A 
ATOM     11  C10 UNK     1       1.708  34.351 234.415  1.00  0.00     0.051 C 
ATOM     12  C14 UNK     1       3.307  35.067 236.343  1.00  0.00    -0.054 A 
ATOM     13  C13 UNK     1       3.742  36.036 237.247  1.00  0.00     0.007 A 
ATOM     14  C15 UNK     1       3.975  33.716 236.324  1.00  0.00     0.049 C 
ATOM     15  C12 UNK     1       3.142  37.295 237.288  1.00  0.00     0.003 A 
ATOM     16  C11 UNK     1       2.087  37.649 236.433  1.00  0.00     0.030 A 
ENDBRANCH   7   9
ENDBRANCH   6   7
BRANCH   1  17
ATOM     17  C1  UNK     1      -1.288  36.366 232.552  1.00  0.00     0.178 C 
ATOM     18  O1  UNK     1      -0.322  35.799 231.981  1.00  0.00    -0.646 OA
BRANCH  17  19
ATOM     19  O2  UNK     1      -1.953  37.250 231.948  1.00  0.00    -0.773 OA
ATOM     20  H1  UNK     1      -2.864  37.197 232.211  1.00  0.00     0.167 HD
ENDBRANCH  17  19
ENDBRANCH   1  17
TORSDOF 4
ENDMDL
