MODEL 1
REMARK VINA RESULT:      -6.6      0.000      0.000
REMARK  9 active torsions:
REMARK  status: ('A' for Active; 'I' for Inactive)
REMARK    1  A    between atoms: C2_3  and  C3_4 
REMARK    2  A    between atoms: C3_4  and  O1_5 
REMARK    3  A    between atoms: C4_8  and  C5_9 
REMARK    4  A    between atoms: C5_9  and  C6_10 
REMARK    5  A    between atoms: C6_10  and  C7_11 
REMARK    6  A    between atoms: N2_13  and  C9_14 
REMARK    7  A    between atoms: C9_14  and  C10_15 
REMARK    8  A    between atoms: C15_20  and  C16_21 
REMARK    9  A    between atoms: C21_26  and  C22_27 
ROOT
ATOM      1  C10 UNK     1       0.816  33.830 235.768  1.00  0.00    -0.040 C 
ATOM      2  C11 UNK     1       2.202  33.865 235.115  1.00  0.00     0.010 C 
ATOM      3  C12 UNK     1       3.415  34.012 236.052  1.00  0.00     0.013 C 
ATOM      4  C13 UNK     1       0.570  33.609 237.226  1.00  0.00     0.010 C 
ATOM      5  C14 UNK     1       1.744  33.771 238.120  1.00  0.00     0.013 C 
ATOM      6  C15 UNK     1       3.111  34.112 237.565  1.00  0.00    -0.025 C 
ENDROOT
BRANCH   1   7
ATOM      7  C9  UNK     1      -0.448  33.459 235.008  1.00  0.00     0.169 C 
BRANCH   7   8
ATOM      8  N2  UNK     1      -0.761  34.659 234.344  1.00  0.00    -0.331 N 
ATOM      9  C2  UNK     1      -0.595  34.706 232.931  1.00  0.00     0.075 C 
ATOM     10  C1  UNK     1      -1.006  36.188 232.634  1.00  0.00     0.130 C 
ATOM     11 Cl1  UNK     1      -1.366  36.863 231.047  1.00  0.00    -0.062 Cl
ATOM     12  N1  UNK     1      -1.344  36.879 233.862  1.00  0.00    -0.335 N 
ATOM     13  C4  UNK     1      -0.942  35.997 234.918  1.00  0.00     0.085 C 
ATOM     14  H1  UNK     1      -1.777  37.799 233.955  1.00  0.00     0.168 HD
BRANCH   9  15
ATOM     15  C3  UNK     1      -0.526  33.519 231.971  1.00  0.00     0.224 C 
BRANCH  15  16
ATOM     16  O1  UNK     1       0.800  33.117 231.648  1.00  0.00    -0.395 OA
ATOM     17  H3  UNK     1       1.415  33.757 231.985  1.00  0.00     0.209 HD
ENDBRANCH  15  16
ENDBRANCH   9  15
BRANCH  13  18
ATOM     18  C5  UNK     1      -1.156  36.404 236.368  1.00  0.00     0.076 C 
BRANCH  18  19
ATOM     19  C6  UNK     1      -0.366  37.676 236.714  1.00  0.00     0.007 C 
BRANCH  19  20
ATOM     20  C7  UNK     1       1.014  37.456 237.343  1.00  0.00    -0.004 C 
ATOM     21  C8  UNK     1       2.125  37.577 236.332  1.00  0.00     0.005 C 
ENDBRANCH  19  20
ENDBRANCH  18  19
ENDBRANCH  13  18
ENDBRANCH   7   8
ENDBRANCH   1   7
BRANCH   6  22
ATOM     22  C16 UNK     1       4.238  34.094 238.599  1.00  0.00    -0.012 C 
ATOM     23  C17 UNK     1       4.308  35.303 239.473  1.00  0.00     0.013 C 
ATOM     24  C18 UNK     1       5.307  35.295 240.595  1.00  0.00     0.001 C 
ATOM     25  C19 UNK     1       6.056  34.030 240.941  1.00  0.00     0.001 C 
ATOM     26  C20 UNK     1       5.874  32.755 240.148  1.00  0.00     0.016 C 
ATOM     27  C21 UNK     1       4.768  32.772 239.111  1.00  0.00     0.022 C 
BRANCH  27  28
ATOM     28  C22 UNK     1       4.673  31.550 238.208  1.00  0.00     0.148 A 
ATOM     29  N3  UNK     1       5.711  31.169 237.266  1.00  0.00    -0.268 N 
ATOM     30  N6  UNK     1       5.125  30.174 236.645  1.00  0.00    -0.227 N 
ATOM     31  H3  UNK     1       6.640  31.566 237.126  1.00  0.00     0.190 HD
ATOM     32  N5  UNK     1       3.854  30.011 237.068  1.00  0.00    -0.227 N 
ATOM     33  H6  UNK     1       5.572  29.597 235.933  1.00  0.00     0.210 HD
ATOM     34  N4  UNK     1       3.427  30.845 238.002  1.00  0.00    -0.268 N 
ATOM     35  H23 UNK     1       3.265  29.295 236.695  1.00  0.00     0.210 HD
ATOM     36  H4  UNK     1       2.511  30.956 238.437  1.00  0.00     0.190 HD
ENDBRANCH  27  28
ENDBRANCH   6  22
TORSDOF 9
ENDMDL
MODEL 2
REMARK VINA RESULT:      -6.5      3.205      4.787
REMARK  9 active torsions:
REMARK  status: ('A' for Active; 'I' for Inactive)
REMARK    1  A    between atoms: C2_3  and  C3_4 
REMARK    2  A    between atoms: C3_4  and  O1_5 
REMARK    3  A    between atoms: C4_8  and  C5_9 
REMARK    4  A    between atoms: C5_9  and  C6_10 
REMARK    5  A    between atoms: C6_10  and  C7_11 
REMARK    6  A    between atoms: N2_13  and  C9_14 
REMARK    7  A    between atoms: C9_14  and  C10_15 
REMARK    8  A    between atoms: C15_20  and  C16_21 
REMARK    9  A    between atoms: C21_26  and  C22_27 
ROOT
ATOM      1  C10 UNK     1       0.666  32.718 235.043  1.00  0.00    -0.040 C 
ATOM      2  C11 UNK     1      -0.207  33.436 236.077  1.00  0.00     0.010 C 
ATOM      3  C12 UNK     1       0.518  34.135 237.242  1.00  0.00     0.013 C 
ATOM      4  C13 UNK     1       2.142  32.907 234.899  1.00  0.00     0.010 C 
ATOM      5  C14 UNK     1       2.831  33.567 236.036  1.00  0.00     0.013 C 
ATOM      6  C15 UNK     1       2.062  34.040 237.252  1.00  0.00    -0.025 C 
ENDROOT
BRANCH   1   7
ATOM      7  C9  UNK     1       0.122  32.187 233.726  1.00  0.00     0.169 C 
BRANCH   7   8
ATOM      8  N2  UNK     1      -0.716  33.235 233.303  1.00  0.00    -0.331 N 
ATOM      9  C2  UNK     1      -2.120  33.007 233.289  1.00  0.00     0.075 C 
ATOM     10  C1  UNK     1      -2.638  34.377 232.733  1.00  0.00     0.130 C 
ATOM     11 Cl1  UNK     1      -4.305  34.941 232.762  1.00  0.00    -0.062 Cl
ATOM     12  N1  UNK     1      -1.527  35.263 232.449  1.00  0.00    -0.335 N 
ATOM     13  C4  UNK     1      -0.351  34.450 232.567  1.00  0.00     0.085 C 
ATOM     14  H1  UNK     1      -1.572  36.256 232.215  1.00  0.00     0.168 HD
BRANCH   9  15
ATOM     15  C3  UNK     1      -2.888  31.933 234.060  1.00  0.00     0.224 C 
BRANCH  15  16
ATOM     16  O1  UNK     1      -3.520  32.414 235.240  1.00  0.00    -0.395 OA
ATOM     17  H3  UNK     1      -3.303  31.846 235.969  1.00  0.00     0.209 HD
ENDBRANCH  15  16
ENDBRANCH   9  15
BRANCH  13  18
ATOM     18  C5  UNK     1       1.021  35.065 232.338  1.00  0.00     0.076 C 
BRANCH  18  19
ATOM     19  C6  UNK     1       1.416  35.014 230.854  1.00  0.00     0.007 C 
BRANCH  19  20
ATOM     20  C7  UNK     1       0.922  33.791 230.073  1.00  0.00    -0.004 C 
ATOM     21  C8  UNK     1       1.311  33.850 228.619  1.00  0.00     0.005 C 
ENDBRANCH  19  20
ENDBRANCH  18  19
ENDBRANCH  13  18
ENDBRANCH   7   8
ENDBRANCH   1   7
BRANCH   6  22
ATOM     22  C16 UNK     1       2.894  34.831 238.262  1.00  0.00    -0.012 C 
ATOM     23  C17 UNK     1       3.830  34.009 239.086  1.00  0.00     0.013 C 
ATOM     24  C18 UNK     1       4.771  34.734 240.005  1.00  0.00     0.001 C 
ATOM     25  C19 UNK     1       4.899  36.238 239.935  1.00  0.00     0.001 C 
ATOM     26  C20 UNK     1       4.057  37.065 238.989  1.00  0.00     0.016 C 
ATOM     27  C21 UNK     1       3.217  36.286 237.995  1.00  0.00     0.022 C 
BRANCH  27  28
ATOM     28  C22 UNK     1       2.257  37.101 237.140  1.00  0.00     0.148 A 
ATOM     29  N3  UNK     1       1.001  37.634 237.636  1.00  0.00    -0.268 N 
ATOM     30  N6  UNK     1       0.485  38.115 236.531  1.00  0.00    -0.227 N 
ATOM     31  H3  UNK     1       0.622  37.633 238.584  1.00  0.00     0.190 HD
ATOM     32  N5  UNK     1       1.264  37.839 235.465  1.00  0.00    -0.227 N 
ATOM     33  H6  UNK     1      -0.392  38.633 236.483  1.00  0.00     0.210 HD
ATOM     34  N4  UNK     1       2.373  37.157 235.699  1.00  0.00    -0.268 N 
ATOM     35  H23 UNK     1       1.015  38.134 234.543  1.00  0.00     0.210 HD
ATOM     36  H4  UNK     1       3.083  36.789 235.067  1.00  0.00     0.190 HD
ENDBRANCH  27  28
ENDBRANCH   6  22
TORSDOF 9
ENDMDL
MODEL 3
REMARK VINA RESULT:      -6.3      2.911      3.566
REMARK  9 active torsions:
REMARK  status: ('A' for Active; 'I' for Inactive)
REMARK    1  A    between atoms: C2_3  and  C3_4 
REMARK    2  A    between atoms: C3_4  and  O1_5 
REMARK    3  A    between atoms: C4_8  and  C5_9 
REMARK    4  A    between atoms: C5_9  and  C6_10 
REMARK    5  A    between atoms: C6_10  and  C7_11 
REMARK    6  A    between atoms: N2_13  and  C9_14 
REMARK    7  A    between atoms: C9_14  and  C10_15 
REMARK    8  A    between atoms: C15_20  and  C16_21 
REMARK    9  A    between atoms: C21_26  and  C22_27 
ROOT
ATOM      1  C10 UNK     1       1.492  34.763 233.900  1.00  0.00    -0.040 C 
ATOM      2  C11 UNK     1       0.841  33.419 233.559  1.00  0.00     0.010 C 
ATOM      3  C12 UNK     1       1.438  32.163 234.220  1.00  0.00     0.013 C 
ATOM      4  C13 UNK     1       2.432  34.986 235.041  1.00  0.00     0.010 C 
ATOM      5  C14 UNK     1       3.014  33.768 235.659  1.00  0.00     0.013 C 
ATOM      6  C15 UNK     1       2.643  32.386 235.165  1.00  0.00    -0.025 C 
ENDROOT
BRANCH   1   7
ATOM      7  C9  UNK     1       0.880  36.101 233.517  1.00  0.00     0.169 C 
BRANCH   7   8
ATOM      8  N2  UNK     1      -0.486  35.891 233.781  1.00  0.00    -0.331 N 
ATOM      9  C2  UNK     1      -1.383  35.844 232.677  1.00  0.00     0.075 C 
ATOM     10  C1  UNK     1      -2.750  35.641 233.415  1.00  0.00     0.130 C 
ATOM     11 Cl1  UNK     1      -4.268  35.159 232.664  1.00  0.00    -0.062 Cl
ATOM     12  N1  UNK     1      -2.555  35.613 234.850  1.00  0.00    -0.335 N 
ATOM     13  C4  UNK     1      -1.196  36.022 235.058  1.00  0.00     0.085 C 
ATOM     14  H1  UNK     1      -3.240  35.357 235.562  1.00  0.00     0.168 HD
BRANCH   9  15
ATOM     15  C3  UNK     1      -1.032  35.569 231.215  1.00  0.00     0.224 C 
BRANCH  15  16
ATOM     16  O1  UNK     1      -1.385  36.626 230.331  1.00  0.00    -0.395 OA
ATOM     17  H3  UNK     1      -0.598  37.069 230.037  1.00  0.00     0.209 HD
ENDBRANCH  15  16
ENDBRANCH   9  15
BRANCH  13  18
ATOM     18  C5  UNK     1      -0.637  36.103 236.470  1.00  0.00     0.076 C 
BRANCH  18  19
ATOM     19  C6  UNK     1      -0.301  37.552 236.857  1.00  0.00     0.007 C 
BRANCH  19  20
ATOM     20  C7  UNK     1       1.153  37.982 236.639  1.00  0.00    -0.004 C 
ATOM     21  C8  UNK     1       2.089  37.348 237.635  1.00  0.00     0.005 C 
ENDBRANCH  19  20
ENDBRANCH  18  19
ENDBRANCH  13  18
ENDBRANCH   7   8
ENDBRANCH   1   7
BRANCH   6  22
ATOM     22  C16 UNK     1       3.211  31.239 236.002  1.00  0.00    -0.012 C 
ATOM     23  C17 UNK     1       4.582  30.794 235.609  1.00  0.00     0.013 C 
ATOM     24  C18 UNK     1       5.253  29.761 236.470  1.00  0.00     0.001 C 
ATOM     25  C19 UNK     1       4.642  29.354 237.791  1.00  0.00     0.001 C 
ATOM     26  C20 UNK     1       3.321  29.920 238.264  1.00  0.00     0.016 C 
ATOM     27  C21 UNK     1       2.745  31.046 237.429  1.00  0.00     0.022 C 
BRANCH  27  28
ATOM     28  C22 UNK     1       1.349  31.521 237.810  1.00  0.00     0.148 A 
ATOM     29  N3  UNK     1       1.098  32.718 238.592  1.00  0.00    -0.268 N 
ATOM     30  N6  UNK     1      -0.197  32.626 238.772  1.00  0.00    -0.227 N 
ATOM     31  H3  UNK     1       1.750  33.434 238.914  1.00  0.00     0.190 HD
ATOM     32  N5  UNK     1      -0.684  31.478 238.258  1.00  0.00    -0.227 N 
ATOM     33  H6  UNK     1      -0.764  33.332 239.241  1.00  0.00     0.210 HD
ATOM     34  N4  UNK     1       0.188  30.669 237.680  1.00  0.00    -0.268 N 
ATOM     35  H23 UNK     1      -1.656  31.250 238.311  1.00  0.00     0.210 HD
ATOM     36  H4  UNK     1       0.077  29.740 237.273  1.00  0.00     0.190 HD
ENDBRANCH  27  28
ENDBRANCH   6  22
TORSDOF 9
ENDMDL
MODEL 4
REMARK VINA RESULT:      -6.3      3.524      6.298
REMARK  9 active torsions:
REMARK  status: ('A' for Active; 'I' for Inactive)
REMARK    1  A    between atoms: C2_3  and  C3_4 
REMARK    2  A    between atoms: C3_4  and  O1_5 
REMARK    3  A    between atoms: C4_8  and  C5_9 
REMARK    4  A    between atoms: C5_9  and  C6_10 
REMARK    5  A    between atoms: C6_10  and  C7_11 
REMARK    6  A    between atoms: N2_13  and  C9_14 
REMARK    7  A    between atoms: C9_14  and  C10_15 
REMARK    8  A    between atoms: C15_20  and  C16_21 
REMARK    9  A    between atoms: C21_26  and  C22_27 
ROOT
ATOM      1  C10 UNK     1       0.114  34.227 231.630  1.00  0.00    -0.040 C 
ATOM      2  C11 UNK     1       1.059  35.406 231.883  1.00  0.00     0.010 C 
ATOM      3  C12 UNK     1       1.697  35.506 233.282  1.00  0.00     0.013 C 
ATOM      4  C13 UNK     1       0.011  33.018 232.504  1.00  0.00     0.010 C 
ATOM      5  C14 UNK     1       0.615  33.134 233.856  1.00  0.00     0.013 C 
ATOM      6  C15 UNK     1       1.314  34.402 234.296  1.00  0.00    -0.025 C 
ENDROOT
BRANCH   1   7
ATOM      7  C9  UNK     1      -0.404  33.863 230.248  1.00  0.00     0.169 C 
BRANCH   7   8
ATOM      8  N2  UNK     1      -0.362  35.099 229.577  1.00  0.00    -0.331 N 
ATOM      9  C2  UNK     1      -1.557  35.869 229.515  1.00  0.00     0.075 C 
ATOM     10  C1  UNK     1      -1.073  37.099 228.673  1.00  0.00     0.130 C 
ATOM     11 Cl1  UNK     1      -1.932  38.624 228.483  1.00  0.00    -0.062 Cl
ATOM     12  N1  UNK     1       0.318  36.944 228.297  1.00  0.00    -0.335 N 
ATOM     13  C4  UNK     1       0.658  35.595 228.646  1.00  0.00     0.085 C 
ATOM     14  H1  UNK     1       0.926  37.645 227.874  1.00  0.00     0.168 HD
BRANCH   9  15
ATOM     15  C3  UNK     1      -2.779  35.752 230.426  1.00  0.00     0.224 C 
BRANCH  15  16
ATOM     16  O1  UNK     1      -3.004  36.898 231.236  1.00  0.00    -0.395 OA
ATOM     17  H3  UNK     1      -2.250  37.474 231.187  1.00  0.00     0.209 HD
ENDBRANCH  15  16
ENDBRANCH   9  15
BRANCH  13  18
ATOM     18  C5  UNK     1       2.066  35.080 228.394  1.00  0.00     0.076 C 
BRANCH  18  19
ATOM     19  C6  UNK     1       2.134  34.246 227.104  1.00  0.00     0.007 C 
BRANCH  19  20
ATOM     20  C7  UNK     1       1.708  32.780 227.233  1.00  0.00    -0.004 C 
ATOM     21  C8  UNK     1       2.689  31.843 226.578  1.00  0.00     0.005 C 
ENDBRANCH  19  20
ENDBRANCH  18  19
ENDBRANCH  13  18
ENDBRANCH   7   8
ENDBRANCH   1   7
BRANCH   6  22
ATOM     22  C16 UNK     1       2.009  34.305 235.655  1.00  0.00    -0.012 C 
ATOM     23  C17 UNK     1       3.173  33.370 235.700  1.00  0.00     0.013 C 
ATOM     24  C18 UNK     1       3.982  33.325 236.965  1.00  0.00     0.001 C 
ATOM     25  C19 UNK     1       3.745  34.339 238.060  1.00  0.00     0.001 C 
ATOM     26  C20 UNK     1       2.660  35.388 237.951  1.00  0.00     0.016 C 
ATOM     27  C21 UNK     1       1.956  35.478 236.611  1.00  0.00     0.022 C 
BRANCH  27  28
ATOM     28  C22 UNK     1       0.768  36.426 236.537  1.00  0.00     0.148 A 
ATOM     29  N3  UNK     1      -0.610  35.993 236.682  1.00  0.00    -0.268 N 
ATOM     30  N6  UNK     1      -1.247  37.106 236.407  1.00  0.00    -0.227 N 
ATOM     31  H3  UNK     1      -0.982  35.076 236.930  1.00  0.00     0.190 HD
ATOM     32  N5  UNK     1      -0.392  38.084 236.043  1.00  0.00    -0.227 N 
ATOM     33  H6  UNK     1      -2.259  37.218 236.462  1.00  0.00     0.210 HD
ATOM     34  N4  UNK     1       0.894  37.773 236.024  1.00  0.00    -0.268 N 
ATOM     35  H23 UNK     1      -0.714  38.998 235.798  1.00  0.00     0.210 HD
ATOM     36  H4  UNK     1       1.712  38.311 235.740  1.00  0.00     0.190 HD
ENDBRANCH  27  28
ENDBRANCH   6  22
TORSDOF 9
ENDMDL
MODEL 5
REMARK VINA RESULT:      -6.2      3.453      8.423
REMARK  9 active torsions:
REMARK  status: ('A' for Active; 'I' for Inactive)
REMARK    1  A    between atoms: C2_3  and  C3_4 
REMARK    2  A    between atoms: C3_4  and  O1_5 
REMARK    3  A    between atoms: C4_8  and  C5_9 
REMARK    4  A    between atoms: C5_9  and  C6_10 
REMARK    5  A    between atoms: C6_10  and  C7_11 
REMARK    6  A    between atoms: N2_13  and  C9_14 
REMARK    7  A    between atoms: C9_14  and  C10_15 
REMARK    8  A    between atoms: C15_20  and  C16_21 
REMARK    9  A    between atoms: C21_26  and  C22_27 
ROOT
ATOM      1  C10 UNK     1       0.471  34.464 234.958  1.00  0.00    -0.040 C 
ATOM      2  C11 UNK     1       1.201  35.407 233.996  1.00  0.00     0.010 C 
ATOM      3  C12 UNK     1       1.175  35.041 232.500  1.00  0.00     0.013 C 
ATOM      4  C13 UNK     1      -0.512  33.418 234.539  1.00  0.00     0.010 C 
ATOM      5  C14 UNK     1      -0.515  33.062 233.098  1.00  0.00     0.013 C 
ATOM      6  C15 UNK     1       0.412  33.750 232.118  1.00  0.00    -0.025 C 
ENDROOT
BRANCH   1   7
ATOM      7  C9  UNK     1       0.210  34.808 236.416  1.00  0.00     0.169 C 
BRANCH   7   8
ATOM      8  N2  UNK     1       1.507  35.060 236.900  1.00  0.00    -0.331 N 
ATOM      9  C2  UNK     1       1.884  36.413 237.130  1.00  0.00     0.075 C 
ATOM     10  C1  UNK     1       3.365  36.230 237.608  1.00  0.00     0.130 C 
ATOM     11 Cl1  UNK     1       4.358  37.456 238.391  1.00  0.00    -0.062 Cl
ATOM     12  N1  UNK     1       3.735  34.829 237.596  1.00  0.00    -0.335 N 
ATOM     13  C4  UNK     1       2.664  34.158 236.917  1.00  0.00     0.085 C 
ATOM     14  H1  UNK     1       4.578  34.409 237.987  1.00  0.00     0.168 HD
BRANCH   9  15
ATOM     15  C3  UNK     1       0.954  37.610 237.327  1.00  0.00     0.224 C 
BRANCH  15  16
ATOM     16  O1  UNK     1       0.728  38.363 236.142  1.00  0.00    -0.395 OA
ATOM     17  H3  UNK     1       1.191  39.190 236.200  1.00  0.00     0.209 HD
ENDBRANCH  15  16
ENDBRANCH   9  15
BRANCH  13  18
ATOM     18  C5  UNK     1       2.715  32.651 236.724  1.00  0.00     0.076 C 
BRANCH  18  19
ATOM     19  C6  UNK     1       3.436  32.278 235.419  1.00  0.00     0.007 C 
BRANCH  19  20
ATOM     20  C7  UNK     1       2.643  31.400 234.445  1.00  0.00    -0.004 C 
ATOM     21  C8  UNK     1       1.712  30.456 235.160  1.00  0.00     0.005 C 
ENDBRANCH  19  20
ENDBRANCH  18  19
ENDBRANCH  13  18
ENDBRANCH   7   8
ENDBRANCH   1   7
BRANCH   6  22
ATOM     22  C16 UNK     1       0.179  33.377 230.654  1.00  0.00    -0.012 C 
ATOM     23  C17 UNK     1       0.693  32.031 230.259  1.00  0.00     0.013 C 
ATOM     24  C18 UNK     1       0.383  31.546 228.871  1.00  0.00     0.001 C 
ATOM     25  C19 UNK     1      -0.585  32.306 227.995  1.00  0.00     0.001 C 
ATOM     26  C20 UNK     1      -1.228  33.597 228.453  1.00  0.00     0.016 C 
ATOM     27  C21 UNK     1      -0.987  33.980 229.900  1.00  0.00     0.022 C 
BRANCH  27  28
ATOM     28  C22 UNK     1      -1.504  35.346 230.329  1.00  0.00     0.148 A 
ATOM     29  N3  UNK     1      -2.666  35.530 231.181  1.00  0.00    -0.268 N 
ATOM     30  N6  UNK     1      -2.791  36.834 231.148  1.00  0.00    -0.227 N 
ATOM     31  H3  UNK     1      -3.230  34.835 231.671  1.00  0.00     0.190 HD
ATOM     32  N5  UNK     1      -1.891  37.392 230.311  1.00  0.00    -0.227 N 
ATOM     33  H6  UNK     1      -3.480  37.360 231.685  1.00  0.00     0.210 HD
ATOM     34  N4  UNK     1      -1.065  36.567 229.690  1.00  0.00    -0.268 N 
ATOM     35  H23 UNK     1      -1.851  38.381 230.169  1.00  0.00     0.210 HD
ATOM     36  H4  UNK     1      -0.348  36.737 228.985  1.00  0.00     0.190 HD
ENDBRANCH  27  28
ENDBRANCH   6  22
TORSDOF 9
ENDMDL
MODEL 6
REMARK VINA RESULT:      -6.2      3.545      5.320
REMARK  9 active torsions:
REMARK  status: ('A' for Active; 'I' for Inactive)
REMARK    1  A    between atoms: C2_3  and  C3_4 
REMARK    2  A    between atoms: C3_4  and  O1_5 
REMARK    3  A    between atoms: C4_8  and  C5_9 
REMARK    4  A    between atoms: C5_9  and  C6_10 
REMARK    5  A    between atoms: C6_10  and  C7_11 
REMARK    6  A    between atoms: N2_13  and  C9_14 
REMARK    7  A    between atoms: C9_14  and  C10_15 
REMARK    8  A    between atoms: C15_20  and  C16_21 
REMARK    9  A    between atoms: C21_26  and  C22_27 
ROOT
ATOM      1  C10 UNK     1       0.280  34.188 231.506  1.00  0.00    -0.040 C 
ATOM      2  C11 UNK     1       1.232  35.354 231.786  1.00  0.00     0.010 C 
ATOM      3  C12 UNK     1       1.827  35.450 233.204  1.00  0.00     0.013 C 
ATOM      4  C13 UNK     1       0.133  32.983 232.379  1.00  0.00     0.010 C 
ATOM      5  C14 UNK     1       0.695  33.094 233.749  1.00  0.00     0.013 C 
ATOM      6  C15 UNK     1       1.398  34.354 234.208  1.00  0.00    -0.025 C 
ENDROOT
BRANCH   1   7
ATOM      7  C9  UNK     1      -0.199  33.827 230.109  1.00  0.00     0.169 C 
BRANCH   7   8
ATOM      8  N2  UNK     1      -1.092  34.875 229.819  1.00  0.00    -0.331 N 
ATOM      9  C2  UNK     1      -0.614  35.966 229.041  1.00  0.00     0.075 C 
ATOM     10  C1  UNK     1      -1.885  36.881 229.001  1.00  0.00     0.130 C 
ATOM     11 Cl1  UNK     1      -2.137  38.255 227.928  1.00  0.00    -0.062 Cl
ATOM     12  N1  UNK     1      -2.967  36.284 229.758  1.00  0.00    -0.335 N 
ATOM     13  C4  UNK     1      -2.377  35.180 230.458  1.00  0.00     0.085 C 
ATOM     14  H1  UNK     1      -3.941  36.584 229.786  1.00  0.00     0.168 HD
BRANCH   9  15
ATOM     15  C3  UNK     1       0.606  35.978 228.119  1.00  0.00     0.224 C 
BRANCH  15  16
ATOM     16  O1  UNK     1       1.086  37.282 227.817  1.00  0.00    -0.395 OA
ATOM     17  H3  UNK     1       1.884  37.215 227.307  1.00  0.00     0.209 HD
ENDBRANCH  15  16
ENDBRANCH   9  15
BRANCH  13  18
ATOM     18  C5  UNK     1      -3.237  34.309 231.360  1.00  0.00     0.076 C 
BRANCH  18  19
ATOM     19  C6  UNK     1      -3.667  35.067 232.626  1.00  0.00     0.007 C 
BRANCH  19  20
ATOM     20  C7  UNK     1      -2.591  35.235 233.704  1.00  0.00    -0.004 C 
ATOM     21  C8  UNK     1      -1.768  36.479 233.497  1.00  0.00     0.005 C 
ENDBRANCH  19  20
ENDBRANCH  18  19
ENDBRANCH  13  18
ENDBRANCH   7   8
ENDBRANCH   1   7
BRANCH   6  22
ATOM     22  C16 UNK     1       2.048  34.252 235.588  1.00  0.00    -0.012 C 
ATOM     23  C17 UNK     1       3.147  33.246 235.692  1.00  0.00     0.013 C 
ATOM     24  C18 UNK     1       3.917  33.185 236.981  1.00  0.00     0.001 C 
ATOM     25  C19 UNK     1       3.717  34.243 238.040  1.00  0.00     0.001 C 
ATOM     26  C20 UNK     1       2.707  35.357 237.872  1.00  0.00     0.016 C 
ATOM     27  C21 UNK     1       2.047  35.453 236.511  1.00  0.00     0.022 C 
BRANCH  27  28
ATOM     28  C22 UNK     1       0.925  36.474 236.377  1.00  0.00     0.148 A 
ATOM     29  N3  UNK     1       1.153  37.878 236.087  1.00  0.00    -0.268 N 
ATOM     30  N6  UNK     1      -0.062  38.354 236.210  1.00  0.00    -0.227 N 
ATOM     31  H3  UNK     1       2.021  38.362 235.852  1.00  0.00     0.190 HD
ATOM     32  N5  UNK     1      -0.924  37.400 236.618  1.00  0.00    -0.227 N 
ATOM     33  H6  UNK     1      -0.323  39.322 236.022  1.00  0.00     0.210 HD
ATOM     34  N4  UNK     1      -0.424  36.192 236.817  1.00  0.00    -0.268 N 
ATOM     35  H23 UNK     1      -1.894  37.597 236.763  1.00  0.00     0.210 HD
ATOM     36  H4  UNK     1      -0.852  35.336 237.168  1.00  0.00     0.190 HD
ENDBRANCH  27  28
ENDBRANCH   6  22
TORSDOF 9
ENDMDL
MODEL 7
REMARK VINA RESULT:      -6.2      3.050      4.160
REMARK  9 active torsions:
REMARK  status: ('A' for Active; 'I' for Inactive)
REMARK    1  A    between atoms: C2_3  and  C3_4 
REMARK    2  A    between atoms: C3_4  and  O1_5 
REMARK    3  A    between atoms: C4_8  and  C5_9 
REMARK    4  A    between atoms: C5_9  and  C6_10 
REMARK    5  A    between atoms: C6_10  and  C7_11 
REMARK    6  A    between atoms: N2_13  and  C9_14 
REMARK    7  A    between atoms: C9_14  and  C10_15 
REMARK    8  A    between atoms: C15_20  and  C16_21 
REMARK    9  A    between atoms: C21_26  and  C22_27 
ROOT
ATOM      1  C10 UNK     1      -0.238  36.082 234.811  1.00  0.00    -0.040 C 
ATOM      2  C11 UNK     1       0.483  34.857 234.239  1.00  0.00     0.010 C 
ATOM      3  C12 UNK     1       1.401  34.074 235.195  1.00  0.00     0.013 C 
ATOM      4  C13 UNK     1      -0.371  36.385 236.269  1.00  0.00     0.010 C 
ATOM      5  C14 UNK     1       0.532  35.635 237.179  1.00  0.00     0.013 C 
ATOM      6  C15 UNK     1       1.506  34.607 236.644  1.00  0.00    -0.025 C 
ENDROOT
BRANCH   1   7
ATOM      7  C9  UNK     1      -1.345  36.813 234.069  1.00  0.00     0.169 C 
BRANCH   7   8
ATOM      8  N2  UNK     1      -2.035  35.757 233.444  1.00  0.00    -0.331 N 
ATOM      9  C2  UNK     1      -2.154  35.780 232.027  1.00  0.00     0.075 C 
ATOM     10  C1  UNK     1      -2.998  34.484 231.780  1.00  0.00     0.130 C 
ATOM     11 Cl1  UNK     1      -3.245  33.691 230.227  1.00  0.00    -0.062 Cl
ATOM     12  N1  UNK     1      -3.320  33.838 233.036  1.00  0.00    -0.335 N 
ATOM     13  C4  UNK     1      -2.936  34.773 234.054  1.00  0.00     0.085 C 
ATOM     14  H1  UNK     1      -3.733  32.914 233.169  1.00  0.00     0.168 HD
BRANCH   9  15
ATOM     15  C3  UNK     1      -1.286  36.562 231.040  1.00  0.00     0.224 C 
BRANCH  15  16
ATOM     16  O1  UNK     1      -1.997  37.554 230.311  1.00  0.00    -0.395 OA
ATOM     17  H3  UNK     1      -1.435  38.307 230.170  1.00  0.00     0.209 HD
ENDBRANCH  15  16
ENDBRANCH   9  15
BRANCH  13  18
ATOM     18  C5  UNK     1      -3.129  34.418 235.520  1.00  0.00     0.076 C 
BRANCH  18  19
ATOM     19  C6  UNK     1      -2.657  32.986 235.816  1.00  0.00     0.007 C 
BRANCH  19  20
ATOM     20  C7  UNK     1      -1.789  32.813 237.067  1.00  0.00    -0.004 C 
ATOM     21  C8  UNK     1      -2.350  33.550 238.255  1.00  0.00     0.005 C 
ENDBRANCH  19  20
ENDBRANCH  18  19
ENDBRANCH  13  18
ENDBRANCH   7   8
ENDBRANCH   1   7
BRANCH   6  22
ATOM     22  C16 UNK     1       2.254  33.820 237.721  1.00  0.00    -0.012 C 
ATOM     23  C17 UNK     1       1.877  32.378 237.821  1.00  0.00     0.013 C 
ATOM     24  C18 UNK     1       2.664  31.516 238.766  1.00  0.00     0.001 C 
ATOM     25  C19 UNK     1       3.915  32.049 239.425  1.00  0.00     0.001 C 
ATOM     26  C20 UNK     1       4.386  33.470 239.205  1.00  0.00     0.016 C 
ATOM     27  C21 UNK     1       3.637  34.261 238.150  1.00  0.00     0.022 C 
BRANCH  27  28
ATOM     28  C22 UNK     1       4.004  35.733 238.026  1.00  0.00     0.148 A 
ATOM     29  N3  UNK     1       3.540  36.753 238.948  1.00  0.00    -0.268 N 
ATOM     30  N6  UNK     1       3.986  37.837 238.361  1.00  0.00    -0.227 N 
ATOM     31  H3  UNK     1       3.011  36.655 239.816  1.00  0.00     0.190 HD
ATOM     32  N5  UNK     1       4.568  37.550 237.178  1.00  0.00    -0.227 N 
ATOM     33  H6  UNK     1       3.905  38.777 238.748  1.00  0.00     0.210 HD
ATOM     34  N4  UNK     1       4.593  36.276 236.821  1.00  0.00    -0.268 N 
ATOM     35  H23 UNK     1       4.962  38.265 236.600  1.00  0.00     0.210 HD
ATOM     36  H4  UNK     1       4.922  35.822 235.969  1.00  0.00     0.190 HD
ENDBRANCH  27  28
ENDBRANCH   6  22
TORSDOF 9
ENDMDL
MODEL 8
REMARK VINA RESULT:      -6.1      2.963      4.109
REMARK  9 active torsions:
REMARK  status: ('A' for Active; 'I' for Inactive)
REMARK    1  A    between atoms: C2_3  and  C3_4 
REMARK    2  A    between atoms: C3_4  and  O1_5 
REMARK    3  A    between atoms: C4_8  and  C5_9 
REMARK    4  A    between atoms: C5_9  and  C6_10 
REMARK    5  A    between atoms: C6_10  and  C7_11 
REMARK    6  A    between atoms: N2_13  and  C9_14 
REMARK    7  A    between atoms: C9_14  and  C10_15 
REMARK    8  A    between atoms: C15_20  and  C16_21 
REMARK    9  A    between atoms: C21_26  and  C22_27 
ROOT
ATOM      1  C10 UNK     1       0.387  35.636 234.460  1.00  0.00    -0.040 C 
ATOM      2  C11 UNK     1       0.054  36.387 235.752  1.00  0.00     0.010 C 
ATOM      3  C12 UNK     1       0.598  35.797 237.067  1.00  0.00     0.013 C 
ATOM      4  C13 UNK     1       1.439  34.581 234.338  1.00  0.00     0.010 C 
ATOM      5  C14 UNK     1       1.943  34.008 235.612  1.00  0.00     0.013 C 
ATOM      6  C15 UNK     1       1.429  34.497 236.949  1.00  0.00    -0.025 C 
ENDROOT
BRANCH   1   7
ATOM      7  C9  UNK     1       0.124  36.210 233.077  1.00  0.00     0.169 C 
BRANCH   7   8
ATOM      8  N2  UNK     1      -0.600  35.176 232.456  1.00  0.00    -0.331 N 
ATOM      9  C2  UNK     1      -0.115  34.670 231.217  1.00  0.00     0.075 C 
ATOM     10  C1  UNK     1      -1.212  33.602 230.884  1.00  0.00     0.130 C 
ATOM     11 Cl1  UNK     1      -1.091  32.342 229.659  1.00  0.00    -0.062 Cl
ATOM     12  N1  UNK     1      -2.235  33.585 231.910  1.00  0.00    -0.335 N 
ATOM     13  C4  UNK     1      -1.971  34.733 232.730  1.00  0.00     0.085 C 
ATOM     14  H1  UNK     1      -2.984  32.902 232.026  1.00  0.00     0.168 HD
BRANCH   9  15
ATOM     15  C3  UNK     1       1.303  34.793 230.661  1.00  0.00     0.224 C 
BRANCH  15  16
ATOM     16  O1  UNK     1       1.372  34.737 229.242  1.00  0.00    -0.395 OA
ATOM     17  H3  UNK     1       1.935  35.433 228.924  1.00  0.00     0.209 HD
ENDBRANCH  15  16
ENDBRANCH   9  15
BRANCH  13  18
ATOM     18  C5  UNK     1      -2.860  35.029 233.927  1.00  0.00     0.076 C 
BRANCH  18  19
ATOM     19  C6  UNK     1      -3.138  33.759 234.746  1.00  0.00     0.007 C 
BRANCH  19  20
ATOM     20  C7  UNK     1      -1.942  33.182 235.511  1.00  0.00    -0.004 C 
ATOM     21  C8  UNK     1      -2.125  33.273 237.004  1.00  0.00     0.005 C 
ENDBRANCH  19  20
ENDBRANCH  18  19
ENDBRANCH  13  18
ENDBRANCH   7   8
ENDBRANCH   1   7
BRANCH   6  22
ATOM     22  C16 UNK     1       2.156  33.914 238.161  1.00  0.00    -0.012 C 
ATOM     23  C17 UNK     1       1.814  32.494 238.474  1.00  0.00     0.013 C 
ATOM     24  C18 UNK     1       2.587  31.817 239.571  1.00  0.00     0.001 C 
ATOM     25  C19 UNK     1       3.797  32.487 240.178  1.00  0.00     0.001 C 
ATOM     26  C20 UNK     1       4.237  33.871 239.754  1.00  0.00     0.016 C 
ATOM     27  C21 UNK     1       3.509  34.461 238.562  1.00  0.00     0.022 C 
BRANCH  27  28
ATOM     28  C22 UNK     1       3.841  35.907 238.219  1.00  0.00     0.148 A 
ATOM     29  N3  UNK     1       4.565  36.298 237.023  1.00  0.00    -0.268 N 
ATOM     30  N6  UNK     1       4.723  37.582 237.241  1.00  0.00    -0.227 N 
ATOM     31  H3  UNK     1       4.867  35.731 236.230  1.00  0.00     0.190 HD
ATOM     32  N5  UNK     1       4.250  37.935 238.454  1.00  0.00    -0.227 N 
ATOM     33  H6  UNK     1       5.149  38.230 236.579  1.00  0.00     0.210 HD
ATOM     34  N4  UNK     1       3.726  36.971 239.192  1.00  0.00    -0.268 N 
ATOM     35  H23 UNK     1       4.294  38.880 238.779  1.00  0.00     0.210 HD
ATOM     36  H4  UNK     1       3.358  36.976 240.143  1.00  0.00     0.190 HD
ENDBRANCH  27  28
ENDBRANCH   6  22
TORSDOF 9
ENDMDL
MODEL 9
REMARK VINA RESULT:      -6.0      4.070      8.720
REMARK  9 active torsions:
REMARK  status: ('A' for Active; 'I' for Inactive)
REMARK    1  A    between atoms: C2_3  and  C3_4 
REMARK    2  A    between atoms: C3_4  and  O1_5 
REMARK    3  A    between atoms: C4_8  and  C5_9 
REMARK    4  A    between atoms: C5_9  and  C6_10 
REMARK    5  A    between atoms: C6_10  and  C7_11 
REMARK    6  A    between atoms: N2_13  and  C9_14 
REMARK    7  A    between atoms: C9_14  and  C10_15 
REMARK    8  A    between atoms: C15_20  and  C16_21 
REMARK    9  A    between atoms: C21_26  and  C22_27 
ROOT
ATOM      1  C10 UNK     1       0.954  33.659 233.483  1.00  0.00    -0.040 C 
ATOM      2  C11 UNK     1       0.684  32.300 232.830  1.00  0.00     0.010 C 
ATOM      3  C12 UNK     1       0.392  32.295 231.317  1.00  0.00     0.013 C 
ATOM      4  C13 UNK     1       1.266  34.914 232.734  1.00  0.00     0.010 C 
ATOM      5  C14 UNK     1       0.964  34.902 231.281  1.00  0.00     0.013 C 
ATOM      6  C15 UNK     1       0.398  33.670 230.608  1.00  0.00    -0.025 C 
ENDROOT
BRANCH   1   7
ATOM      7  C9  UNK     1       1.481  33.805 234.902  1.00  0.00     0.169 C 
BRANCH   7   8
ATOM      8  N2  UNK     1       0.542  34.677 235.482  1.00  0.00    -0.331 N 
ATOM      9  C2  UNK     1       1.024  35.859 236.111  1.00  0.00     0.075 C 
ATOM     10  C1  UNK     1      -0.315  36.483 236.632  1.00  0.00     0.130 C 
ATOM     11 Cl1  UNK     1      -0.528  38.130 237.220  1.00  0.00    -0.062 Cl
ATOM     12  N1  UNK     1      -1.438  35.630 236.302  1.00  0.00    -0.335 N 
ATOM     13  C4  UNK     1      -0.860  34.409 235.822  1.00  0.00     0.085 C 
ATOM     14  H1  UNK     1      -2.430  35.852 236.391  1.00  0.00     0.168 HD
BRANCH   9  15
ATOM     15  C3  UNK     1       2.376  36.537 235.888  1.00  0.00     0.224 C 
BRANCH  15  16
ATOM     16  O1  UNK     1       2.462  37.259 234.665  1.00  0.00    -0.395 OA
ATOM     17  H3  UNK     1       2.899  36.725 234.013  1.00  0.00     0.209 HD
ENDBRANCH  15  16
ENDBRANCH   9  15
BRANCH  13  18
ATOM     18  C5  UNK     1      -1.761  33.269 235.372  1.00  0.00     0.076 C 
BRANCH  18  19
ATOM     19  C6  UNK     1      -2.963  33.791 234.568  1.00  0.00     0.007 C 
BRANCH  19  20
ATOM     20  C7  UNK     1      -2.724  34.004 233.070  1.00  0.00    -0.004 C 
ATOM     21  C8  UNK     1      -3.138  32.810 232.251  1.00  0.00     0.005 C 
ENDBRANCH  19  20
ENDBRANCH  18  19
ENDBRANCH  13  18
ENDBRANCH   7   8
ENDBRANCH   1   7
BRANCH   6  22
ATOM     22  C16 UNK     1       0.286  33.772 229.086  1.00  0.00    -0.012 C 
ATOM     23  C17 UNK     1       0.903  32.640 228.333  1.00  0.00     0.013 C 
ATOM     24  C18 UNK     1       0.715  32.609 226.843  1.00  0.00     0.001 C 
ATOM     25  C19 UNK     1      -0.237  33.572 226.173  1.00  0.00     0.001 C 
ATOM     26  C20 UNK     1      -0.984  34.627 226.958  1.00  0.00     0.016 C 
ATOM     27  C21 UNK     1      -0.862  34.541 228.467  1.00  0.00     0.022 C 
BRANCH  27  28
ATOM     28  C22 UNK     1      -1.487  35.681 229.259  1.00  0.00     0.148 A 
ATOM     29  N3  UNK     1      -2.786  35.592 229.901  1.00  0.00    -0.268 N 
ATOM     30  N6  UNK     1      -2.940  36.826 230.316  1.00  0.00    -0.227 N 
ATOM     31  H3  UNK     1      -3.408  34.789 230.001  1.00  0.00     0.190 HD
ATOM     32  N5  UNK     1      -1.923  37.612 229.908  1.00  0.00    -0.227 N 
ATOM     33  H6  UNK     1      -3.729  37.150 230.875  1.00  0.00     0.210 HD
ATOM     34  N4  UNK     1      -0.976  37.033 229.188  1.00  0.00    -0.268 N 
ATOM     35  H23 UNK     1      -1.887  38.584 230.138  1.00  0.00     0.210 HD
ATOM     36  H4  UNK     1      -0.150  37.417 228.729  1.00  0.00     0.190 HD
ENDBRANCH  27  28
ENDBRANCH   6  22
TORSDOF 9
ENDMDL
