MODEL 1
REMARK VINA RESULT:      -6.2      0.000      0.000
REMARK  10 active torsions:
REMARK  status: ('A' for Active; 'I' for Inactive)
REMARK    1  A    between atoms: C6_7  and  C7_8 
REMARK    2  A    between atoms: C8_9  and  C9_10 
REMARK    3  A    between atoms: C9_10  and  O2_12 
REMARK    4  A    between atoms: O2_12  and  C10_13 
REMARK    5  A    between atoms: C12_15  and  C13_16 
REMARK    6  A    between atoms: C13_16  and  O4_18 
REMARK    7  A    between atoms: C17_23  and  C18_24 
REMARK    8  A    between atoms: C18_24  and  O5_25 
REMARK    9  A    between atoms: O5_25  and  C19_26 
REMARK   10  A    between atoms: C20_27  and  N2_28 
ROOT
ATOM      1  C7  UNK     1       3.051  33.985 237.284  1.00  0.00     0.030 C 
ATOM      2  C8  UNK     1       2.021  34.811 236.711  1.00  0.00     0.052 C 
ATOM      3  C12 UNK     1       3.793  34.643 238.335  1.00  0.00     0.049 C 
ATOM      4  C15 UNK     1       4.185  35.881 237.862  1.00  0.00     0.018 C 
ATOM      5  C16 UNK     1       5.109  36.744 238.667  1.00  0.00     0.069 C 
ATOM      6  N1  UNK     1       3.757  36.325 236.681  1.00  0.00    -0.360 N 
ATOM      7  C17 UNK     1       2.534  36.009 236.339  1.00  0.00     0.046 C 
ATOM      8  H25 UNK     1       4.342  36.875 236.085  1.00  0.00     0.165 HD
ENDROOT
BRANCH   1   9
ATOM      9  C6  UNK     1       3.229  32.517 236.894  1.00  0.00     0.115 A 
ATOM     10  C1  UNK     1       2.720  31.338 237.409  1.00  0.00     0.021 A 
ATOM     11 Cl1  UNK     1       1.696  31.232 238.763  1.00  0.00    -0.088 Cl
ATOM     12  C2  UNK     1       3.065  30.140 236.826  1.00  0.00     0.020 A 
ATOM     13  C3  UNK     1       3.897  30.093 235.740  1.00  0.00     0.001 A 
ATOM     14  C4  UNK     1       4.398  31.258 235.220  1.00  0.00    -0.003 A 
ATOM     15  C5  UNK     1       4.056  32.456 235.798  1.00  0.00    -0.015 A 
ENDBRANCH   1   9
BRANCH   2  16
ATOM     16  C9  UNK     1       0.755  34.326 236.245  1.00  0.00     0.292 C 
ATOM     17  O1  UNK     1      -0.108  34.130 237.048  1.00  0.00    -0.260 OA
BRANCH  16  18
ATOM     18  O2  UNK     1       0.609  33.969 234.997  1.00  0.00    -0.318 OA
BRANCH  18  19
ATOM     19  C10 UNK     1       0.120  32.717 235.027  1.00  0.00     0.174 C 
ATOM     20  C11 UNK     1       0.877  31.866 234.026  1.00  0.00     0.034 C 
ENDBRANCH  18  19
ENDBRANCH  16  18
ENDBRANCH   2  16
BRANCH   3  21
ATOM     21  C13 UNK     1       4.308  33.954 239.568  1.00  0.00     0.291 C 
ATOM     22  O3  UNK     1       3.573  33.683 240.496  1.00  0.00    -0.260 OA
BRANCH  21  23
ATOM     23  O4  UNK     1       5.607  33.750 239.677  1.00  0.00    -0.323 OA
ATOM     24  C14 UNK     1       5.734  32.391 239.711  1.00  0.00     0.213 C 
ENDBRANCH  21  23
ENDBRANCH   3  21
BRANCH   7  25
ATOM     25  C18 UNK     1       1.794  36.968 235.511  1.00  0.00     0.225 C 
BRANCH  25  26
ATOM     26  O5  UNK     1       1.475  38.060 236.174  1.00  0.00    -0.384 OA
BRANCH  26  27
ATOM     27  C19 UNK     1       0.407  37.888 237.124  1.00  0.00     0.197 C 
ATOM     28  C20 UNK     1      -0.857  37.853 236.788  1.00  0.00     0.292 C 
BRANCH  28  29
ATOM     29  N2  UNK     1      -1.368  39.031 236.130  1.00  0.00     0.080 NA
ATOM     30  H22 UNK     1      -2.205  39.332 236.586  1.00  0.00     0.312 HD
ATOM     31  H23 UNK     1      -0.684  39.759 236.173  1.00  0.00     0.312 HD
ENDBRANCH  28  29
ENDBRANCH  26  27
ENDBRANCH  25  26
ENDBRANCH   7  25
TORSDOF 10
ENDMDL
MODEL 2
REMARK VINA RESULT:      -5.8      2.708      5.631
REMARK  10 active torsions:
REMARK  status: ('A' for Active; 'I' for Inactive)
REMARK    1  A    between atoms: C6_7  and  C7_8 
REMARK    2  A    between atoms: C8_9  and  C9_10 
REMARK    3  A    between atoms: C9_10  and  O2_12 
REMARK    4  A    between atoms: O2_12  and  C10_13 
REMARK    5  A    between atoms: C12_15  and  C13_16 
REMARK    6  A    between atoms: C13_16  and  O4_18 
REMARK    7  A    between atoms: C17_23  and  C18_24 
REMARK    8  A    between atoms: C18_24  and  O5_25 
REMARK    9  A    between atoms: O5_25  and  C19_26 
REMARK   10  A    between atoms: C20_27  and  N2_28 
ROOT
ATOM      1  C7  UNK     1       1.125  33.431 234.418  1.00  0.00     0.030 C 
ATOM      2  C8  UNK     1       1.060  34.141 235.668  1.00  0.00     0.052 C 
ATOM      3  C12 UNK     1       1.814  32.165 234.513  1.00  0.00     0.049 C 
ATOM      4  C15 UNK     1       3.015  32.388 235.160  1.00  0.00     0.018 C 
ATOM      5  C16 UNK     1       4.032  31.292 235.274  1.00  0.00     0.069 C 
ATOM      6  N1  UNK     1       3.295  33.580 235.685  1.00  0.00    -0.360 N 
ATOM      7  C17 UNK     1       2.297  34.241 236.214  1.00  0.00     0.046 C 
ATOM      8  H25 UNK     1       4.224  33.953 235.676  1.00  0.00     0.165 HD
ENDROOT
BRANCH   1   9
ATOM      9  C6  UNK     1       0.407  33.929 233.162  1.00  0.00     0.115 A 
ATOM     10  C1  UNK     1      -0.917  33.902 232.763  1.00  0.00     0.021 A 
ATOM     11 Cl1  UNK     1      -2.187  33.207 233.655  1.00  0.00    -0.088 Cl
ATOM     12  C2  UNK     1      -1.269  34.448 231.548  1.00  0.00     0.020 A 
ATOM     13  C3  UNK     1      -0.333  35.022 230.731  1.00  0.00     0.001 A 
ATOM     14  C4  UNK     1       0.979  35.058 231.125  1.00  0.00    -0.003 A 
ATOM     15  C5  UNK     1       1.335  34.516 232.335  1.00  0.00    -0.015 A 
ENDBRANCH   1   9
BRANCH   2  16
ATOM     16  C9  UNK     1      -0.046  34.950 236.088  1.00  0.00     0.292 C 
ATOM     17  O1  UNK     1      -0.854  34.469 236.825  1.00  0.00    -0.260 OA
BRANCH  16  18
ATOM     18  O2  UNK     1      -0.235  36.128 235.555  1.00  0.00    -0.318 OA
BRANCH  18  19
ATOM     19  C10 UNK     1      -0.784  36.884 236.522  1.00  0.00     0.174 C 
ATOM     20  C11 UNK     1       0.253  37.867 237.030  1.00  0.00     0.034 C 
ENDBRANCH  18  19
ENDBRANCH  16  18
ENDBRANCH   2  16
BRANCH   3  21
ATOM     21  C13 UNK     1       1.427  30.930 233.750  1.00  0.00     0.291 C 
ATOM     22  O3  UNK     1       0.783  30.041 234.269  1.00  0.00    -0.260 OA
BRANCH  21  23
ATOM     23  O4  UNK     1       1.903  30.770 232.529  1.00  0.00    -0.323 OA
ATOM     24  C14 UNK     1       0.789  30.679 231.743  1.00  0.00     0.213 C 
ENDBRANCH  21  23
ENDBRANCH   3  21
BRANCH   7  25
ATOM     25  C18 UNK     1       2.593  35.112 237.358  1.00  0.00     0.225 C 
BRANCH  25  26
ATOM     26  O5  UNK     1       3.824  34.957 237.799  1.00  0.00    -0.384 OA
BRANCH  26  27
ATOM     27  C19 UNK     1       4.247  35.959 238.743  1.00  0.00     0.197 C 
ATOM     28  C20 UNK     1       4.098  37.243 238.545  1.00  0.00     0.292 C 
BRANCH  28  29
ATOM     29  N2  UNK     1       4.754  37.782 237.379  1.00  0.00     0.080 NA
ATOM     30  H22 UNK     1       4.576  37.192 236.593  1.00  0.00     0.312 HD
ATOM     31  H23 UNK     1       4.402  38.700 237.194  1.00  0.00     0.312 HD
ENDBRANCH  28  29
ENDBRANCH  26  27
ENDBRANCH  25  26
ENDBRANCH   7  25
TORSDOF 10
ENDMDL
MODEL 3
REMARK VINA RESULT:      -5.8      3.297      5.599
REMARK  10 active torsions:
REMARK  status: ('A' for Active; 'I' for Inactive)
REMARK    1  A    between atoms: C6_7  and  C7_8 
REMARK    2  A    between atoms: C8_9  and  C9_10 
REMARK    3  A    between atoms: C9_10  and  O2_12 
REMARK    4  A    between atoms: O2_12  and  C10_13 
REMARK    5  A    between atoms: C12_15  and  C13_16 
REMARK    6  A    between atoms: C13_16  and  O4_18 
REMARK    7  A    between atoms: C17_23  and  C18_24 
REMARK    8  A    between atoms: C18_24  and  O5_25 
REMARK    9  A    between atoms: O5_25  and  C19_26 
REMARK   10  A    between atoms: C20_27  and  N2_28 
ROOT
ATOM      1  C7  UNK     1       0.754  33.667 233.635  1.00  0.00     0.030 C 
ATOM      2  C8  UNK     1       0.139  34.533 234.607  1.00  0.00     0.052 C 
ATOM      3  C12 UNK     1       1.550  32.616 234.226  1.00  0.00     0.049 C 
ATOM      4  C15 UNK     1       2.392  33.199 235.154  1.00  0.00     0.018 C 
ATOM      5  C16 UNK     1       3.457  32.388 235.829  1.00  0.00     0.069 C 
ATOM      6  N1  UNK     1       2.279  34.491 235.460  1.00  0.00    -0.360 N 
ATOM      7  C17 UNK     1       1.069  34.989 235.481  1.00  0.00     0.046 C 
ATOM      8  H25 UNK     1       3.080  35.054 235.664  1.00  0.00     0.165 HD
ENDROOT
BRANCH   1   9
ATOM      9  C6  UNK     1       0.463  33.789 232.138  1.00  0.00     0.115 A 
ATOM     10  C1  UNK     1      -0.498  33.226 231.318  1.00  0.00     0.021 A 
ATOM     11 Cl1  UNK     1      -1.689  32.124 231.829  1.00  0.00    -0.088 Cl
ATOM     12  C2  UNK     1      -0.510  33.538 229.976  1.00  0.00     0.020 A 
ATOM     13  C3  UNK     1       0.409  34.399 229.441  1.00  0.00     0.001 A 
ATOM     14  C4  UNK     1       1.359  34.966 230.250  1.00  0.00    -0.003 A 
ATOM     15  C5  UNK     1       1.374  34.659 231.588  1.00  0.00    -0.015 A 
ENDBRANCH   1   9
BRANCH   2  16
ATOM     16  C9  UNK     1      -1.154  35.132 234.459  1.00  0.00     0.292 C 
ATOM     17  O1  UNK     1      -2.117  34.480 234.737  1.00  0.00    -0.260 OA
BRANCH  16  18
ATOM     18  O2  UNK     1      -1.272  36.304 233.895  1.00  0.00    -0.318 OA
BRANCH  18  19
ATOM     19  C10 UNK     1      -2.212  36.162 232.944  1.00  0.00     0.174 C 
ATOM     20  C11 UNK     1      -1.706  36.773 231.652  1.00  0.00     0.034 C 
ENDBRANCH  18  19
ENDBRANCH  16  18
ENDBRANCH   2  16
BRANCH   3  21
ATOM     21  C13 UNK     1       1.656  31.222 233.677  1.00  0.00     0.291 C 
ATOM     22  O3  UNK     1       1.956  31.017 232.519  1.00  0.00    -0.260 OA
BRANCH  21  23
ATOM     23  O4  UNK     1       1.299  30.213 234.451  1.00  0.00    -0.323 OA
ATOM     24  C14 UNK     1      -0.066  30.211 234.395  1.00  0.00     0.213 C 
ENDBRANCH  21  23
ENDBRANCH   3  21
BRANCH   7  25
ATOM     25  C18 UNK     1       0.800  36.073 236.434  1.00  0.00     0.225 C 
BRANCH  25  26
ATOM     26  O5  UNK     1       1.627  37.086 236.286  1.00  0.00    -0.384 OA
BRANCH  26  27
ATOM     27  C19 UNK     1       2.446  37.358 237.438  1.00  0.00     0.197 C 
ATOM     28  C20 UNK     1       3.741  37.534 237.376  1.00  0.00     0.292 C 
BRANCH  28  29
ATOM     29  N2  UNK     1       4.503  36.428 236.849  1.00  0.00     0.080 NA
ATOM     30  H22 UNK     1       4.556  36.504 235.854  1.00  0.00     0.312 HD
ATOM     31  H23 UNK     1       5.426  36.447 237.234  1.00  0.00     0.312 HD
ENDBRANCH  28  29
ENDBRANCH  26  27
ENDBRANCH  25  26
ENDBRANCH   7  25
TORSDOF 10
ENDMDL
MODEL 4
REMARK VINA RESULT:      -5.5      2.187      2.898
REMARK  10 active torsions:
REMARK  status: ('A' for Active; 'I' for Inactive)
REMARK    1  A    between atoms: C6_7  and  C7_8 
REMARK    2  A    between atoms: C8_9  and  C9_10 
REMARK    3  A    between atoms: C9_10  and  O2_12 
REMARK    4  A    between atoms: O2_12  and  C10_13 
REMARK    5  A    between atoms: C12_15  and  C13_16 
REMARK    6  A    between atoms: C13_16  and  O4_18 
REMARK    7  A    between atoms: C17_23  and  C18_24 
REMARK    8  A    between atoms: C18_24  and  O5_25 
REMARK    9  A    between atoms: O5_25  and  C19_26 
REMARK   10  A    between atoms: C20_27  and  N2_28 
ROOT
ATOM      1  C7  UNK     1       1.914  33.827 237.325  1.00  0.00     0.030 C 
ATOM      2  C8  UNK     1       0.499  33.575 237.398  1.00  0.00     0.052 C 
ATOM      3  C12 UNK     1       2.283  35.152 237.765  1.00  0.00     0.049 C 
ATOM      4  C15 UNK     1       1.461  36.054 237.117  1.00  0.00     0.018 C 
ATOM      5  C16 UNK     1       1.701  37.529 237.244  1.00  0.00     0.069 C 
ATOM      6  N1  UNK     1       0.449  35.632 236.361  1.00  0.00    -0.360 N 
ATOM      7  C17 UNK     1      -0.184  34.561 236.767  1.00  0.00     0.046 C 
ATOM      8  H25 UNK     1       0.184  36.111 235.523  1.00  0.00     0.165 HD
ENDROOT
BRANCH   1   9
ATOM      9  C6  UNK     1       2.916  32.734 236.947  1.00  0.00     0.115 A 
ATOM     10  C1  UNK     1       3.658  31.838 237.695  1.00  0.00     0.021 A 
ATOM     11 Cl1  UNK     1       3.655  31.754 239.394  1.00  0.00    -0.088 Cl
ATOM     12  C2  UNK     1       4.491  30.949 237.054  1.00  0.00     0.020 A 
ATOM     13  C3  UNK     1       4.594  30.930 235.690  1.00  0.00     0.001 A 
ATOM     14  C4  UNK     1       3.855  31.810 234.943  1.00  0.00    -0.003 A 
ATOM     15  C5  UNK     1       3.022  32.699 235.577  1.00  0.00    -0.015 A 
ENDBRANCH   1   9
BRANCH   2  16
ATOM     16  C9  UNK     1      -0.086  32.310 237.730  1.00  0.00     0.292 C 
ATOM     17  O1  UNK     1      -0.212  32.028 238.885  1.00  0.00    -0.260 OA
BRANCH  16  18
ATOM     18  O2  UNK     1      -0.334  31.436 236.792  1.00  0.00    -0.318 OA
BRANCH  18  19
ATOM     19  C10 UNK     1       0.232  30.286 237.201  1.00  0.00     0.174 C 
ATOM     20  C11 UNK     1       0.973  29.658 236.037  1.00  0.00     0.034 C 
ENDBRANCH  18  19
ENDBRANCH  16  18
ENDBRANCH   2  16
BRANCH   3  21
ATOM     21  C13 UNK     1       3.540  35.474 238.522  1.00  0.00     0.291 C 
ATOM     22  O3  UNK     1       4.511  35.948 237.968  1.00  0.00    -0.260 OA
BRANCH  21  23
ATOM     23  O4  UNK     1       3.616  35.124 239.793  1.00  0.00    -0.323 OA
ATOM     24  C14 UNK     1       4.910  35.390 240.140  1.00  0.00     0.213 C 
ENDBRANCH  21  23
ENDBRANCH   3  21
BRANCH   7  25
ATOM     25  C18 UNK     1      -1.617  34.466 236.462  1.00  0.00     0.225 C 
BRANCH  25  26
ATOM     26  O5  UNK     1      -1.843  34.237 235.186  1.00  0.00    -0.384 OA
BRANCH  26  27
ATOM     27  C19 UNK     1      -2.600  35.267 234.521  1.00  0.00     0.197 C 
ATOM     28  C20 UNK     1      -2.130  35.978 233.529  1.00  0.00     0.292 C 
BRANCH  28  29
ATOM     29  N2  UNK     1      -0.948  36.755 233.812  1.00  0.00     0.080 NA
ATOM     30  H22 UNK     1      -0.275  36.180 234.277  1.00  0.00     0.312 HD
ATOM     31  H23 UNK     1      -0.561  37.096 232.956  1.00  0.00     0.312 HD
ENDBRANCH  28  29
ENDBRANCH  26  27
ENDBRANCH  25  26
ENDBRANCH   7  25
TORSDOF 10
ENDMDL
MODEL 5
REMARK VINA RESULT:      -5.4      2.985      6.038
REMARK  10 active torsions:
REMARK  status: ('A' for Active; 'I' for Inactive)
REMARK    1  A    between atoms: C6_7  and  C7_8 
REMARK    2  A    between atoms: C8_9  and  C9_10 
REMARK    3  A    between atoms: C9_10  and  O2_12 
REMARK    4  A    between atoms: O2_12  and  C10_13 
REMARK    5  A    between atoms: C12_15  and  C13_16 
REMARK    6  A    between atoms: C13_16  and  O4_18 
REMARK    7  A    between atoms: C17_23  and  C18_24 
REMARK    8  A    between atoms: C18_24  and  O5_25 
REMARK    9  A    between atoms: O5_25  and  C19_26 
REMARK   10  A    between atoms: C20_27  and  N2_28 
ROOT
ATOM      1  C7  UNK     1       0.994  34.119 234.312  1.00  0.00     0.030 C 
ATOM      2  C8  UNK     1       1.613  34.942 235.318  1.00  0.00     0.052 C 
ATOM      3  C12 UNK     1       0.904  32.727 234.686  1.00  0.00     0.049 C 
ATOM      4  C15 UNK     1       2.151  32.329 235.128  1.00  0.00     0.018 C 
ATOM      5  C16 UNK     1       2.423  30.888 235.442  1.00  0.00     0.069 C 
ATOM      6  N1  UNK     1       3.137  33.214 235.274  1.00  0.00    -0.360 N 
ATOM      7  C17 UNK     1       2.801  34.407 235.693  1.00  0.00     0.046 C 
ATOM      8  H25 UNK     1       4.088  32.978 235.073  1.00  0.00     0.165 HD
ENDROOT
BRANCH   1   9
ATOM      9  C6  UNK     1       0.379  34.711 233.043  1.00  0.00     0.115 A 
ATOM     10  C1  UNK     1      -0.766  35.453 232.810  1.00  0.00     0.021 A 
ATOM     11 Cl1  UNK     1      -1.895  35.898 234.001  1.00  0.00    -0.088 Cl
ATOM     12  C2  UNK     1      -1.060  35.858 231.527  1.00  0.00     0.020 A 
ATOM     13  C3  UNK     1      -0.237  35.546 230.479  1.00  0.00     0.001 A 
ATOM     14  C4  UNK     1       0.902  34.819 230.705  1.00  0.00    -0.003 A 
ATOM     15  C5  UNK     1       1.201  34.414 231.982  1.00  0.00    -0.015 A 
ENDBRANCH   1   9
BRANCH   2  16
ATOM     16  C9  UNK     1       1.243  36.297 235.602  1.00  0.00     0.292 C 
ATOM     17  O1  UNK     1       1.726  37.168 234.942  1.00  0.00    -0.260 OA
BRANCH  16  18
ATOM     18  O2  UNK     1       0.513  36.570 236.651  1.00  0.00    -0.318 OA
BRANCH  18  19
ATOM     19  C10 UNK     1       0.385  37.908 236.670  1.00  0.00     0.174 C 
ATOM     20  C11 UNK     1      -1.081  38.262 236.834  1.00  0.00     0.034 C 
ENDBRANCH  18  19
ENDBRANCH  16  18
ENDBRANCH   2  16
BRANCH   3  21
ATOM     21  C13 UNK     1      -0.248  31.828 234.336  1.00  0.00     0.291 C 
ATOM     22  O3  UNK     1      -0.370  31.360 233.222  1.00  0.00    -0.260 OA
BRANCH  21  23
ATOM     23  O4  UNK     1      -1.198  31.645 235.234  1.00  0.00    -0.323 OA
ATOM     24  C14 UNK     1      -2.259  32.359 234.752  1.00  0.00     0.213 C 
ENDBRANCH  21  23
ENDBRANCH   3  21
BRANCH   7  25
ATOM     25  C18 UNK     1       3.774  35.133 236.518  1.00  0.00     0.225 C 
BRANCH  25  26
ATOM     26  O5  UNK     1       3.418  35.181 237.785  1.00  0.00    -0.384 OA
BRANCH  26  27
ATOM     27  C19 UNK     1       3.585  36.472 238.401  1.00  0.00     0.197 C 
ATOM     28  C20 UNK     1       4.345  36.679 239.445  1.00  0.00     0.292 C 
BRANCH  28  29
ATOM     29  N2  UNK     1       4.000  35.939 240.634  1.00  0.00     0.080 NA
ATOM     30  H22 UNK     1       3.310  36.443 241.152  1.00  0.00     0.312 HD
ATOM     31  H23 UNK     1       3.636  35.045 240.375  1.00  0.00     0.312 HD
ENDBRANCH  28  29
ENDBRANCH  26  27
ENDBRANCH  25  26
ENDBRANCH   7  25
TORSDOF 10
ENDMDL
MODEL 6
REMARK VINA RESULT:      -5.3      3.030      5.787
REMARK  10 active torsions:
REMARK  status: ('A' for Active; 'I' for Inactive)
REMARK    1  A    between atoms: C6_7  and  C7_8 
REMARK    2  A    between atoms: C8_9  and  C9_10 
REMARK    3  A    between atoms: C9_10  and  O2_12 
REMARK    4  A    between atoms: O2_12  and  C10_13 
REMARK    5  A    between atoms: C12_15  and  C13_16 
REMARK    6  A    between atoms: C13_16  and  O4_18 
REMARK    7  A    between atoms: C17_23  and  C18_24 
REMARK    8  A    between atoms: C18_24  and  O5_25 
REMARK    9  A    between atoms: O5_25  and  C19_26 
REMARK   10  A    between atoms: C20_27  and  N2_28 
ROOT
ATOM      1  C7  UNK     1       0.437  34.157 235.341  1.00  0.00     0.030 C 
ATOM      2  C8  UNK     1       1.523  34.789 236.043  1.00  0.00     0.052 C 
ATOM      3  C12 UNK     1      -0.683  33.830 236.192  1.00  0.00     0.049 C 
ATOM      4  C15 UNK     1      -0.190  33.161 237.297  1.00  0.00     0.018 C 
ATOM      5  C16 UNK     1      -1.126  32.549 238.296  1.00  0.00     0.069 C 
ATOM      6  N1  UNK     1       1.123  33.040 237.490  1.00  0.00    -0.360 N 
ATOM      7  C17 UNK     1       1.869  34.053 237.128  1.00  0.00     0.046 C 
ATOM      8  H25 UNK     1       1.520  32.215 237.892  1.00  0.00     0.165 HD
ENDROOT
BRANCH   1   9
ATOM      9  C6  UNK     1       0.441  33.987 233.820  1.00  0.00     0.115 A 
ATOM     10  C1  UNK     1       0.044  34.810 232.781  1.00  0.00     0.021 A 
ATOM     11 Cl1  UNK     1      -0.645  36.352 232.971  1.00  0.00    -0.088 Cl
ATOM     12  C2  UNK     1       0.179  34.372 231.482  1.00  0.00     0.020 A 
ATOM     13  C3  UNK     1       0.704  33.140 231.200  1.00  0.00     0.001 A 
ATOM     14  C4  UNK     1       1.106  32.324 232.225  1.00  0.00    -0.003 A 
ATOM     15  C5  UNK     1       0.975  32.756 233.522  1.00  0.00    -0.015 A 
ENDBRANCH   1   9
BRANCH   2  16
ATOM     16  C9  UNK     1       2.365  35.808 235.491  1.00  0.00     0.292 C 
ATOM     17  O1  UNK     1       3.543  35.610 235.447  1.00  0.00    -0.260 OA
BRANCH  16  18
ATOM     18  O2  UNK     1       1.865  36.975 235.184  1.00  0.00    -0.318 OA
BRANCH  18  19
ATOM     19  C10 UNK     1       1.780  37.654 236.341  1.00  0.00     0.174 C 
ATOM     20  C11 UNK     1       0.320  37.909 236.660  1.00  0.00     0.034 C 
ENDBRANCH  18  19
ENDBRANCH  16  18
ENDBRANCH   2  16
BRANCH   3  21
ATOM     21  C13 UNK     1      -2.123  33.916 235.771  1.00  0.00     0.291 C 
ATOM     22  O3  UNK     1      -2.763  32.922 235.495  1.00  0.00    -0.260 OA
BRANCH  21  23
ATOM     23  O4  UNK     1      -2.654  35.111 235.590  1.00  0.00    -0.323 OA
ATOM     24  C14 UNK     1      -2.687  35.658 236.841  1.00  0.00     0.213 C 
ENDBRANCH  21  23
ENDBRANCH   3  21
BRANCH   7  25
ATOM     25  C18 UNK     1       3.089  34.305 237.903  1.00  0.00     0.225 C 
BRANCH  25  26
ATOM     26  O5  UNK     1       3.000  35.395 238.636  1.00  0.00    -0.384 OA
BRANCH  26  27
ATOM     27  C19 UNK     1       4.260  35.876 239.142  1.00  0.00     0.197 C 
ATOM     28  C20 UNK     1       4.733  37.068 238.882  1.00  0.00     0.292 C 
BRANCH  28  29
ATOM     29  N2  UNK     1       4.953  37.370 237.489  1.00  0.00     0.080 NA
ATOM     30  H22 UNK     1       4.819  38.348 237.334  1.00  0.00     0.312 HD
ATOM     31  H23 UNK     1       5.886  37.117 237.237  1.00  0.00     0.312 HD
ENDBRANCH  28  29
ENDBRANCH  26  27
ENDBRANCH  25  26
ENDBRANCH   7  25
TORSDOF 10
ENDMDL
MODEL 7
REMARK VINA RESULT:      -5.2      2.865      5.277
REMARK  10 active torsions:
REMARK  status: ('A' for Active; 'I' for Inactive)
REMARK    1  A    between atoms: C6_7  and  C7_8 
REMARK    2  A    between atoms: C8_9  and  C9_10 
REMARK    3  A    between atoms: C9_10  and  O2_12 
REMARK    4  A    between atoms: O2_12  and  C10_13 
REMARK    5  A    between atoms: C12_15  and  C13_16 
REMARK    6  A    between atoms: C13_16  and  O4_18 
REMARK    7  A    between atoms: C17_23  and  C18_24 
REMARK    8  A    between atoms: C18_24  and  O5_25 
REMARK    9  A    between atoms: O5_25  and  C19_26 
REMARK   10  A    between atoms: C20_27  and  N2_28 
ROOT
ATOM      1  C7  UNK     1       0.868  34.585 236.021  1.00  0.00     0.030 C 
ATOM      2  C8  UNK     1       1.765  35.701 236.162  1.00  0.00     0.052 C 
ATOM      3  C12 UNK     1       0.651  33.864 237.254  1.00  0.00     0.049 C 
ATOM      4  C15 UNK     1       1.888  33.596 237.808  1.00  0.00     0.018 C 
ATOM      5  C16 UNK     1       2.006  32.721 239.019  1.00  0.00     0.069 C 
ATOM      6  N1  UNK     1       2.999  34.102 237.272  1.00  0.00    -0.360 N 
ATOM      7  C17 UNK     1       2.913  35.305 236.763  1.00  0.00     0.046 C 
ATOM      8  H25 UNK     1       3.856  33.587 237.258  1.00  0.00     0.165 HD
ENDROOT
BRANCH   1   9
ATOM      9  C6  UNK     1       0.127  34.297 234.714  1.00  0.00     0.115 A 
ATOM     10  C1  UNK     1       0.330  33.377 233.700  1.00  0.00     0.021 A 
ATOM     11 Cl1  UNK     1       1.606  32.255 233.648  1.00  0.00    -0.088 Cl
ATOM     12  C2  UNK     1      -0.530  33.355 232.625  1.00  0.00     0.020 A 
ATOM     13  C3  UNK     1      -1.586  34.221 232.543  1.00  0.00     0.001 A 
ATOM     14  C4  UNK     1      -1.798  35.129 233.548  1.00  0.00    -0.003 A 
ATOM     15  C5  UNK     1      -0.944  35.155 234.623  1.00  0.00    -0.015 A 
ENDBRANCH   1   9
BRANCH   2  16
ATOM     16  C9  UNK     1       1.645  36.936 235.446  1.00  0.00     0.292 C 
ATOM     17  O1  UNK     1       1.944  36.954 234.289  1.00  0.00    -0.260 OA
BRANCH  16  18
ATOM     18  O2  UNK     1       1.358  38.039 236.085  1.00  0.00    -0.318 OA
BRANCH  18  19
ATOM     19  C10 UNK     1       0.562  37.676 237.106  1.00  0.00     0.174 C 
ATOM     20  C11 UNK     1      -0.840  38.193 236.847  1.00  0.00     0.034 C 
ENDBRANCH  18  19
ENDBRANCH  16  18
ENDBRANCH   2  16
BRANCH   3  21
ATOM     21  C13 UNK     1      -0.659  33.250 237.658  1.00  0.00     0.291 C 
ATOM     22  O3  UNK     1      -0.847  32.052 237.584  1.00  0.00    -0.260 OA
BRANCH  21  23
ATOM     23  O4  UNK     1      -1.655  34.052 237.988  1.00  0.00    -0.323 OA
ATOM     24  C14 UNK     1      -2.554  33.234 238.613  1.00  0.00     0.213 C 
ENDBRANCH  21  23
ENDBRANCH   3  21
BRANCH   7  25
ATOM     25  C18 UNK     1       4.110  36.153 236.829  1.00  0.00     0.225 C 
BRANCH  25  26
ATOM     26  O5  UNK     1       4.051  37.025 237.813  1.00  0.00    -0.384 OA
BRANCH  26  27
ATOM     27  C19 UNK     1       5.091  36.880 238.799  1.00  0.00     0.197 C 
ATOM     28  C20 UNK     1       5.054  35.993 239.760  1.00  0.00     0.292 C 
BRANCH  28  29
ATOM     29  N2  UNK     1       3.937  36.091 240.667  1.00  0.00     0.080 NA
ATOM     30  H22 UNK     1       3.090  36.185 240.144  1.00  0.00     0.312 HD
ATOM     31  H23 UNK     1       3.891  35.266 241.229  1.00  0.00     0.312 HD
ENDBRANCH  28  29
ENDBRANCH  26  27
ENDBRANCH  25  26
ENDBRANCH   7  25
TORSDOF 10
ENDMDL
MODEL 8
REMARK VINA RESULT:      -5.2      2.743      5.914
REMARK  10 active torsions:
REMARK  status: ('A' for Active; 'I' for Inactive)
REMARK    1  A    between atoms: C6_7  and  C7_8 
REMARK    2  A    between atoms: C8_9  and  C9_10 
REMARK    3  A    between atoms: C9_10  and  O2_12 
REMARK    4  A    between atoms: O2_12  and  C10_13 
REMARK    5  A    between atoms: C12_15  and  C13_16 
REMARK    6  A    between atoms: C13_16  and  O4_18 
REMARK    7  A    between atoms: C17_23  and  C18_24 
REMARK    8  A    between atoms: C18_24  and  O5_25 
REMARK    9  A    between atoms: O5_25  and  C19_26 
REMARK   10  A    between atoms: C20_27  and  N2_28 
ROOT
ATOM      1  C7  UNK     1       0.432  34.234 236.048  1.00  0.00     0.030 C 
ATOM      2  C8  UNK     1       1.596  34.506 236.851  1.00  0.00     0.052 C 
ATOM      3  C12 UNK     1      -0.751  33.958 236.830  1.00  0.00     0.049 C 
ATOM      4  C15 UNK     1      -0.417  33.008 237.776  1.00  0.00     0.018 C 
ATOM      5  C16 UNK     1      -1.475  32.394 238.644  1.00  0.00     0.069 C 
ATOM      6  N1  UNK     1       0.847  32.613 237.929  1.00  0.00    -0.360 N 
ATOM      7  C17 UNK     1       1.773  33.522 237.766  1.00  0.00     0.046 C 
ATOM      8  H25 UNK     1       1.076  31.666 238.157  1.00  0.00     0.165 HD
ENDROOT
BRANCH   1   9
ATOM      9  C6  UNK     1       0.446  34.367 234.524  1.00  0.00     0.115 A 
ATOM     10  C1  UNK     1       0.855  33.519 233.510  1.00  0.00     0.021 A 
ATOM     11 Cl1  UNK     1       1.544  31.983 233.747  1.00  0.00    -0.088 Cl
ATOM     12  C2  UNK     1       0.736  33.925 232.200  1.00  0.00     0.020 A 
ATOM     13  C3  UNK     1       0.213  35.149 231.881  1.00  0.00     0.001 A 
ATOM     14  C4  UNK     1      -0.202  35.990 232.881  1.00  0.00    -0.003 A 
ATOM     15  C5  UNK     1      -0.086  35.589 234.190  1.00  0.00    -0.015 A 
ENDBRANCH   1   9
BRANCH   2  16
ATOM     16  C9  UNK     1       2.623  35.442 236.502  1.00  0.00     0.292 C 
ATOM     17  O1  UNK     1       3.475  35.093 235.740  1.00  0.00    -0.260 OA
BRANCH  16  18
ATOM     18  O2  UNK     1       2.700  36.591 237.119  1.00  0.00    -0.318 OA
BRANCH  18  19
ATOM     19  C10 UNK     1       2.009  37.462 236.363  1.00  0.00     0.174 C 
ATOM     20  C11 UNK     1       0.744  37.861 237.097  1.00  0.00     0.034 C 
ENDBRANCH  18  19
ENDBRANCH  16  18
ENDBRANCH   2  16
BRANCH   3  21
ATOM     21  C13 UNK     1      -2.139  34.387 236.447  1.00  0.00     0.291 C 
ATOM     22  O3  UNK     1      -2.631  35.406 236.886  1.00  0.00    -0.260 OA
BRANCH  21  23
ATOM     23  O4  UNK     1      -2.868  33.571 235.709  1.00  0.00    -0.323 OA
ATOM     24  C14 UNK     1      -3.437  34.383 234.769  1.00  0.00     0.213 C 
ENDBRANCH  21  23
ENDBRANCH   3  21
BRANCH   7  25
ATOM     25  C18 UNK     1       2.998  33.390 238.564  1.00  0.00     0.225 C 
BRANCH  25  26
ATOM     26  O5  UNK     1       3.035  34.241 239.568  1.00  0.00    -0.384 OA
BRANCH  26  27
ATOM     27  C19 UNK     1       4.292  34.929 239.718  1.00  0.00     0.197 C 
ATOM     28  C20 UNK     1       4.413  36.087 240.313  1.00  0.00     0.292 C 
BRANCH  28  29
ATOM     29  N2  UNK     1       3.662  37.175 239.735  1.00  0.00     0.080 NA
ATOM     30  H22 UNK     1       3.150  37.646 240.453  1.00  0.00     0.312 HD
ATOM     31  H23 UNK     1       4.291  37.818 239.298  1.00  0.00     0.312 HD
ENDBRANCH  28  29
ENDBRANCH  26  27
ENDBRANCH  25  26
ENDBRANCH   7  25
TORSDOF 10
ENDMDL
MODEL 9
REMARK VINA RESULT:      -5.2      3.177      5.676
REMARK  10 active torsions:
REMARK  status: ('A' for Active; 'I' for Inactive)
REMARK    1  A    between atoms: C6_7  and  C7_8 
REMARK    2  A    between atoms: C8_9  and  C9_10 
REMARK    3  A    between atoms: C9_10  and  O2_12 
REMARK    4  A    between atoms: O2_12  and  C10_13 
REMARK    5  A    between atoms: C12_15  and  C13_16 
REMARK    6  A    between atoms: C13_16  and  O4_18 
REMARK    7  A    between atoms: C17_23  and  C18_24 
REMARK    8  A    between atoms: C18_24  and  O5_25 
REMARK    9  A    between atoms: O5_25  and  C19_26 
REMARK   10  A    between atoms: C20_27  and  N2_28 
ROOT
ATOM      1  C7  UNK     1       1.387  34.484 235.484  1.00  0.00     0.030 C 
ATOM      2  C8  UNK     1       1.385  33.947 234.149  1.00  0.00     0.052 C 
ATOM      3  C12 UNK     1       2.571  34.142 236.238  1.00  0.00     0.049 C 
ATOM      4  C15 UNK     1       2.764  32.778 236.120  1.00  0.00     0.018 C 
ATOM      5  C16 UNK     1       3.829  32.089 236.921  1.00  0.00     0.069 C 
ATOM      6  N1  UNK     1       2.005  32.050 235.302  1.00  0.00    -0.360 N 
ATOM      7  C17 UNK     1       1.636  32.615 234.181  1.00  0.00     0.046 C 
ATOM      8  H25 UNK     1       1.729  31.117 235.534  1.00  0.00     0.165 HD
ENDROOT
BRANCH   1   9
ATOM      9  C6  UNK     1       0.295  35.433 235.981  1.00  0.00     0.115 A 
ATOM     10  C1  UNK     1       0.252  36.804 236.163  1.00  0.00     0.021 A 
ATOM     11 Cl1  UNK     1       1.552  37.864 235.879  1.00  0.00    -0.088 Cl
ATOM     12  C2  UNK     1      -0.904  37.388 236.630  1.00  0.00     0.020 A 
ATOM     13  C3  UNK     1      -2.013  36.639 236.913  1.00  0.00     0.001 A 
ATOM     14  C4  UNK     1      -1.979  35.281 236.727  1.00  0.00    -0.003 A 
ATOM     15  C5  UNK     1      -0.829  34.694 236.259  1.00  0.00    -0.015 A 
ENDBRANCH   1   9
BRANCH   2  16
ATOM     16  C9  UNK     1       0.828  34.609 233.007  1.00  0.00     0.292 C 
ATOM     17  O1  UNK     1       1.554  35.266 232.321  1.00  0.00    -0.260 OA
BRANCH  16  18
ATOM     18  O2  UNK     1      -0.464  34.609 232.815  1.00  0.00    -0.318 OA
BRANCH  18  19
ATOM     19  C10 UNK     1      -0.773  35.846 232.389  1.00  0.00     0.174 C 
ATOM     20  C11 UNK     1      -2.049  36.300 233.070  1.00  0.00     0.034 C 
ENDBRANCH  18  19
ENDBRANCH  16  18
ENDBRANCH   2  16
BRANCH   3  21
ATOM     21  C13 UNK     1       3.245  35.057 237.220  1.00  0.00     0.291 C 
ATOM     22  O3  UNK     1       2.855  35.155 238.366  1.00  0.00    -0.260 OA
BRANCH  21  23
ATOM     23  O4  UNK     1       4.207  35.849 236.783  1.00  0.00    -0.323 OA
ATOM     24  C14 UNK     1       4.403  36.736 237.804  1.00  0.00     0.213 C 
ENDBRANCH  21  23
ENDBRANCH   3  21
BRANCH   7  25
ATOM     25  C18 UNK     1       1.463  31.745 233.011  1.00  0.00     0.225 C 
BRANCH  25  26
ATOM     26  O5  UNK     1       0.314  31.103 233.031  1.00  0.00    -0.384 OA
BRANCH  26  27
ATOM     27  C19 UNK     1      -0.203  30.767 231.729  1.00  0.00     0.197 C 
ATOM     28  C20 UNK     1      -0.668  31.655 230.889  1.00  0.00     0.292 C 
BRANCH  28  29
ATOM     29  N2  UNK     1      -1.792  32.433 231.351  1.00  0.00     0.080 NA
ATOM     30  H22 UNK     1      -2.443  31.835 231.817  1.00  0.00     0.312 HD
ATOM     31  H23 UNK     1      -1.472  33.136 231.986  1.00  0.00     0.312 HD
ENDBRANCH  28  29
ENDBRANCH  26  27
ENDBRANCH  25  26
ENDBRANCH   7  25
TORSDOF 10
ENDMDL
