MODEL 1
REMARK VINA RESULT:      -8.9      0.000      0.000
REMARK  6 active torsions:
REMARK  status: ('A' for Active; 'I' for Inactive)
REMARK    1  A    between atoms: C1_2  and  C2_3 
REMARK       I    between atoms: C1_2  and  N3_21 
REMARK    2  A    between atoms: N3_21  and  C17_22 
REMARK    3  A    between atoms: C17_22  and  C18_24 
REMARK    4  A    between atoms: C22_30  and  C23_31 
REMARK    5  A    between atoms: C23_31  and  C24_32 
REMARK    6  A    between atoms: C32_42  and  O5_43 
ROOT
ATOM      1  C17 UNK     1       0.018  35.339 234.800  1.00  0.00     0.227 A 
ATOM      2  O2  UNK     1       1.053  36.254 235.207  1.00  0.00    -0.295 OA
ATOM      3  C21 UNK     1       0.621  34.007 235.213  1.00  0.00     0.281 A 
ATOM      4  O3  UNK     1       0.042  32.938 235.046  1.00  0.00    -0.268 OA
ATOM      5  N4  UNK     1       1.823  34.195 235.761  1.00  0.00    -0.277 N 
ATOM      6  C22 UNK     1       2.573  33.223 236.572  1.00  0.00     0.185 C 
ATOM      7  C27 UNK     1       3.326  33.845 237.749  1.00  0.00     0.243 C 
ATOM      8  O4  UNK     1       3.984  33.133 238.504  1.00  0.00    -0.271 OA
ATOM      9  N5  UNK     1       3.294  35.178 237.933  1.00  0.00    -0.338 N 
ATOM     10  C28 UNK     1       4.128  35.949 238.855  1.00  0.00     0.127 C 
ATOM     11  C29 UNK     1       3.694  37.410 238.721  1.00  0.00     0.022 C 
ATOM     12  C30 UNK     1       2.870  37.475 237.439  1.00  0.00     0.034 C 
ATOM     13  C31 UNK     1       2.336  36.053 237.251  1.00  0.00     0.173 C 
ATOM     14  C32 UNK     1       2.193  35.601 235.798  1.00  0.00     0.276 A 
ENDROOT
BRANCH   1  15
ATOM     15  N3  UNK     1      -0.237  35.538 233.376  1.00  0.00    -0.320 N 
ATOM     16  C1  UNK     1       0.590  35.319 232.344  1.00  0.00     0.229 C 
ATOM     17  O1  UNK     1       1.803  35.539 232.370  1.00  0.00    -0.273 OA
ATOM     18  H15 UNK     1      -1.146  35.882 233.140  1.00  0.00     0.166 HD
BRANCH  16  19
ATOM     19  C2  UNK     1      -0.105  34.839 231.098  1.00  0.00     0.118 C 
ATOM     20  C3  UNK     1      -1.376  34.138 231.599  1.00  0.00     0.135 C 
ATOM     21  N1  UNK     1      -2.231  33.874 230.451  1.00  0.00    -0.407 N 
ATOM     22  C4  UNK     1      -3.007  32.640 230.508  1.00  0.00     0.144 C 
ATOM     23  C15 UNK     1      -2.765  35.143 229.922  1.00  0.00     0.116 C 
ATOM     24  C6  UNK     1      -1.647  36.170 229.645  1.00  0.00    -0.027 C 
ATOM     25  C14 UNK     1      -3.719  34.807 228.742  1.00  0.00     0.072 C 
ATOM     26  C5  UNK     1      -0.433  36.014 230.197  1.00  0.00    -0.001 C 
ATOM     27  C7  UNK     1      -1.934  37.384 228.803  1.00  0.00    -0.015 A 
ATOM     28  C8  UNK     1      -1.258  38.605 228.731  1.00  0.00     0.013 A 
ATOM     29  C12 UNK     1      -3.141  37.231 228.005  1.00  0.00     0.011 A 
ATOM     30  C9  UNK     1      -1.754  39.611 227.867  1.00  0.00     0.003 A 
ATOM     31  C10 UNK     1      -2.919  39.477 227.074  1.00  0.00     0.030 A 
ATOM     32  C11 UNK     1      -3.664  38.285 227.106  1.00  0.00     0.044 A 
ATOM     33  N2  UNK     1      -4.789  37.794 226.510  1.00  0.00    -0.349 N 
ATOM     34  C16 UNK     1      -5.001  36.529 226.972  1.00  0.00     0.087 A 
ATOM     35  H14 UNK     1      -5.360  38.280 225.848  1.00  0.00     0.166 HD
ATOM     36  C13 UNK     1      -3.994  36.059 227.946  1.00  0.00    -0.008 A 
ATOM     37 Br1  UNK     1      -6.526  35.358 226.421  1.00  0.00    -0.031 Br
ENDBRANCH  16  19
ENDBRANCH   1  15
BRANCH   1  38
ATOM     38  C18 UNK     1      -1.300  35.577 235.562  1.00  0.00     0.043 C 
ATOM     39  C19 UNK     1      -2.548  35.461 234.677  1.00  0.00     0.015 C 
ATOM     40  C20 UNK     1      -1.315  36.933 236.236  1.00  0.00     0.015 C 
ENDBRANCH   1  38
BRANCH  14  41
ATOM     41  O5  UNK     1       3.434  35.767 235.083  1.00  0.00    -0.347 OA
ATOM     42  H40 UNK     1       3.916  36.498 235.450  1.00  0.00     0.215 HD
ENDBRANCH  14  41
BRANCH   6  43
ATOM     43  C23 UNK     1       3.642  32.724 235.607  1.00  0.00     0.039 C 
BRANCH  43  44
ATOM     44  C24 UNK     1       3.702  31.215 235.442  1.00  0.00    -0.020 C 
ATOM     45  C25 UNK     1       2.451  30.633 236.073  1.00  0.00     0.009 C 
ATOM     46  C26 UNK     1       4.943  30.633 236.108  1.00  0.00     0.009 C 
ENDBRANCH  43  44
ENDBRANCH   6  43
TORSDOF 6
ENDMDL
MODEL 2
REMARK VINA RESULT:      -8.4      2.110      3.421
REMARK  6 active torsions:
REMARK  status: ('A' for Active; 'I' for Inactive)
REMARK    1  A    between atoms: C1_2  and  C2_3 
REMARK       I    between atoms: C1_2  and  N3_21 
REMARK    2  A    between atoms: N3_21  and  C17_22 
REMARK    3  A    between atoms: C17_22  and  C18_24 
REMARK    4  A    between atoms: C22_30  and  C23_31 
REMARK    5  A    between atoms: C23_31  and  C24_32 
REMARK    6  A    between atoms: C32_42  and  O5_43 
ROOT
ATOM      1  C17 UNK     1       0.203  36.057 235.585  1.00  0.00     0.227 A 
ATOM      2  O2  UNK     1       1.393  36.750 236.007  1.00  0.00    -0.295 OA
ATOM      3  C21 UNK     1       0.634  34.608 235.736  1.00  0.00     0.281 A 
ATOM      4  O3  UNK     1      -0.110  33.666 235.481  1.00  0.00    -0.268 OA
ATOM      5  N4  UNK     1       1.892  34.544 236.176  1.00  0.00    -0.277 N 
ATOM      6  C22 UNK     1       2.555  33.366 236.754  1.00  0.00     0.185 C 
ATOM      7  C27 UNK     1       3.489  33.688 237.921  1.00  0.00     0.243 C 
ATOM      8  O4  UNK     1       4.096  32.785 238.493  1.00  0.00    -0.271 OA
ATOM      9  N5  UNK     1       3.672  34.968 238.298  1.00  0.00    -0.338 N 
ATOM     10  C28 UNK     1       4.686  35.466 239.227  1.00  0.00     0.127 C 
ATOM     11  C29 UNK     1       4.464  36.974 239.350  1.00  0.00     0.022 C 
ATOM     12  C30 UNK     1       3.554  37.350 238.186  1.00  0.00     0.034 C 
ATOM     13  C31 UNK     1       2.800  36.059 237.853  1.00  0.00     0.173 C 
ATOM     14  C32 UNK     1       2.469  35.865 236.374  1.00  0.00     0.276 A 
ENDROOT
BRANCH   1  15
ATOM     15  N3  UNK     1      -0.139  36.509 234.239  1.00  0.00    -0.320 N 
ATOM     16  C1  UNK     1       0.259  36.001 233.065  1.00  0.00     0.229 C 
ATOM     17  O1  UNK     1       1.386  35.551 232.852  1.00  0.00    -0.273 OA
ATOM     18  H15 UNK     1      -0.749  37.300 234.187  1.00  0.00     0.166 HD
BRANCH  16  19
ATOM     19  C2  UNK     1      -0.781  36.090 231.979  1.00  0.00     0.118 C 
ATOM     20  C3  UNK     1      -0.215  35.255 230.820  1.00  0.00     0.135 C 
ATOM     21  N1  UNK     1      -1.270  35.076 229.834  1.00  0.00    -0.407 N 
ATOM     22  C4  UNK     1      -0.838  35.049 228.441  1.00  0.00     0.144 C 
ATOM     23  C15 UNK     1      -2.316  34.187 230.375  1.00  0.00     0.116 C 
ATOM     24  C6  UNK     1      -2.824  34.665 231.752  1.00  0.00    -0.027 C 
ATOM     25  C14 UNK     1      -3.385  33.975 229.267  1.00  0.00     0.072 C 
ATOM     26  C5  UNK     1      -2.103  35.536 232.475  1.00  0.00    -0.001 C 
ATOM     27  C7  UNK     1      -4.102  34.105 232.317  1.00  0.00    -0.015 A 
ATOM     28  C8  UNK     1      -4.555  34.063 233.638  1.00  0.00     0.013 A 
ATOM     29  C12 UNK     1      -4.927  33.473 231.298  1.00  0.00     0.011 A 
ATOM     30  C9  UNK     1      -5.800  33.446 233.914  1.00  0.00     0.003 A 
ATOM     31  C10 UNK     1      -6.622  32.837 232.936  1.00  0.00     0.030 A 
ATOM     32  C11 UNK     1      -6.225  32.822 231.587  1.00  0.00     0.044 A 
ATOM     33  N2  UNK     1      -6.723  32.359 230.405  1.00  0.00    -0.349 N 
ATOM     34  C16 UNK     1      -5.837  32.667 229.416  1.00  0.00     0.087 A 
ATOM     35  H14 UNK     1      -7.590  31.875 230.284  1.00  0.00     0.166 HD
ATOM     36  C13 UNK     1      -4.634  33.392 229.879  1.00  0.00    -0.008 A 
ATOM     37 Br1  UNK     1      -6.080  32.206 227.485  1.00  0.00    -0.031 Br
ENDBRANCH  16  19
ENDBRANCH   1  15
BRANCH   1  38
ATOM     38  C18 UNK     1      -0.995  36.348 236.509  1.00  0.00     0.043 C 
ATOM     39  C19 UNK     1      -2.321  35.774 235.991  1.00  0.00     0.015 C 
ATOM     40  C20 UNK     1      -1.174  37.834 236.738  1.00  0.00     0.015 C 
ENDBRANCH   1  38
BRANCH  14  41
ATOM     41  O5  UNK     1       3.656  35.973 235.562  1.00  0.00    -0.347 OA
ATOM     42  H40 UNK     1       4.322  35.384 235.895  1.00  0.00     0.215 HD
ENDBRANCH  14  41
BRANCH   6  43
ATOM     43  C23 UNK     1       3.453  32.885 235.620  1.00  0.00     0.039 C 
BRANCH  43  44
ATOM     44  C24 UNK     1       3.315  31.413 235.274  1.00  0.00    -0.020 C 
ATOM     45  C25 UNK     1       2.086  30.885 235.991  1.00  0.00     0.009 C 
ATOM     46  C26 UNK     1       4.548  30.625 235.698  1.00  0.00     0.009 C 
ENDBRANCH  43  44
ENDBRANCH   6  43
TORSDOF 6
ENDMDL
MODEL 3
REMARK VINA RESULT:      -8.3      3.556      6.034
REMARK  6 active torsions:
REMARK  status: ('A' for Active; 'I' for Inactive)
REMARK    1  A    between atoms: C1_2  and  C2_3 
REMARK       I    between atoms: C1_2  and  N3_21 
REMARK    2  A    between atoms: N3_21  and  C17_22 
REMARK    3  A    between atoms: C17_22  and  C18_24 
REMARK    4  A    between atoms: C22_30  and  C23_31 
REMARK    5  A    between atoms: C23_31  and  C24_32 
REMARK    6  A    between atoms: C32_42  and  O5_43 
ROOT
ATOM      1  C17 UNK     1       3.059  32.264 236.696  1.00  0.00     0.227 A 
ATOM      2  O2  UNK     1       3.352  32.414 238.097  1.00  0.00    -0.295 OA
ATOM      3  C21 UNK     1       2.886  33.712 236.271  1.00  0.00     0.281 A 
ATOM      4  O3  UNK     1       2.628  34.039 235.117  1.00  0.00    -0.268 OA
ATOM      5  N4  UNK     1       3.059  34.523 237.317  1.00  0.00    -0.277 N 
ATOM      6  C22 UNK     1       3.300  35.973 237.266  1.00  0.00     0.185 C 
ATOM      7  C27 UNK     1       4.303  36.474 238.306  1.00  0.00     0.243 C 
ATOM      8  O4  UNK     1       4.593  37.667 238.358  1.00  0.00    -0.271 OA
ATOM      9  N5  UNK     1       4.841  35.608 239.187  1.00  0.00    -0.338 N 
ATOM     10  C28 UNK     1       5.627  35.950 240.372  1.00  0.00     0.127 C 
ATOM     11  C29 UNK     1       6.035  34.627 241.023  1.00  0.00     0.022 C 
ATOM     12  C30 UNK     1       5.144  33.566 240.385  1.00  0.00     0.034 C 
ATOM     13  C31 UNK     1       4.756  34.154 239.026  1.00  0.00     0.173 C 
ATOM     14  C32 UNK     1       3.356  33.786 238.536  1.00  0.00     0.276 A 
ENDROOT
BRANCH   1  15
ATOM     15  N3  UNK     1       1.895  31.391 236.560  1.00  0.00    -0.320 N 
ATOM     16  C1  UNK     1       0.709  31.485 237.176  1.00  0.00     0.229 C 
ATOM     17  O1  UNK     1       0.563  31.845 238.346  1.00  0.00    -0.273 OA
ATOM     18  H15 UNK     1       1.997  30.624 235.926  1.00  0.00     0.166 HD
BRANCH  16  19
ATOM     19  C2  UNK     1      -0.454  31.038 236.330  1.00  0.00     0.118 C 
ATOM     20  C3  UNK     1      -1.590  30.771 237.329  1.00  0.00     0.135 C 
ATOM     21  N1  UNK     1      -2.821  30.586 236.575  1.00  0.00    -0.407 N 
ATOM     22  C4  UNK     1      -3.764  29.619 237.127  1.00  0.00     0.144 C 
ATOM     23  C15 UNK     1      -3.235  31.866 235.969  1.00  0.00     0.116 C 
ATOM     24  C6  UNK     1      -2.096  32.514 235.155  1.00  0.00    -0.027 C 
ATOM     25  C14 UNK     1      -4.583  31.633 235.232  1.00  0.00     0.072 C 
ATOM     26  C5  UNK     1      -0.825  32.123 235.337  1.00  0.00    -0.001 C 
ATOM     27  C7  UNK     1      -2.402  33.634 234.196  1.00  0.00    -0.015 A 
ATOM     28  C8  UNK     1      -1.559  34.612 233.663  1.00  0.00     0.013 A 
ATOM     29  C12 UNK     1      -3.814  33.696 233.849  1.00  0.00     0.011 A 
ATOM     30  C9  UNK     1      -2.106  35.585 232.791  1.00  0.00     0.003 A 
ATOM     31  C10 UNK     1      -3.474  35.654 232.432  1.00  0.00     0.030 A 
ATOM     32  C11 UNK     1      -4.388  34.715 232.943  1.00  0.00     0.044 A 
ATOM     33  N2  UNK     1      -5.723  34.461 232.833  1.00  0.00    -0.349 N 
ATOM     34  C16 UNK     1      -6.017  33.372 233.599  1.00  0.00     0.087 A 
ATOM     35  H14 UNK     1      -6.376  34.984 232.283  1.00  0.00     0.166 HD
ATOM     36  C13 UNK     1      -4.854  32.792 234.304  1.00  0.00    -0.008 A 
ATOM     37 Br1  UNK     1      -7.842  32.579 233.798  1.00  0.00    -0.031 Br
ENDBRANCH  16  19
ENDBRANCH   1  15
BRANCH   1  38
ATOM     38  C18 UNK     1       4.230  31.627 235.923  1.00  0.00     0.043 C 
ATOM     39  C19 UNK     1       3.781  30.736 234.756  1.00  0.00     0.015 C 
ATOM     40  C20 UNK     1       5.118  30.808 236.835  1.00  0.00     0.015 C 
ENDBRANCH   1  38
BRANCH  14  41
ATOM     41  O5  UNK     1       2.361  34.117 239.525  1.00  0.00    -0.347 OA
ATOM     42  H40 UNK     1       2.749  34.669 240.193  1.00  0.00     0.215 HD
ENDBRANCH  14  41
BRANCH   6  43
ATOM     43  C23 UNK     1       1.952  36.559 237.668  1.00  0.00     0.039 C 
BRANCH  43  44
ATOM     44  C24 UNK     1       1.435  37.659 236.758  1.00  0.00    -0.020 C 
ATOM     45  C25 UNK     1      -0.031  37.875 237.085  1.00  0.00     0.009 C 
ATOM     46  C26 UNK     1       1.595  37.287 235.290  1.00  0.00     0.009 C 
ENDBRANCH  43  44
ENDBRANCH   6  43
TORSDOF 6
ENDMDL
MODEL 4
REMARK VINA RESULT:      -8.2      2.333      2.841
REMARK  6 active torsions:
REMARK  status: ('A' for Active; 'I' for Inactive)
REMARK    1  A    between atoms: C1_2  and  C2_3 
REMARK       I    between atoms: C1_2  and  N3_21 
REMARK    2  A    between atoms: N3_21  and  C17_22 
REMARK    3  A    between atoms: C17_22  and  C18_24 
REMARK    4  A    between atoms: C22_30  and  C23_31 
REMARK    5  A    between atoms: C23_31  and  C24_32 
REMARK    6  A    between atoms: C32_42  and  O5_43 
ROOT
ATOM      1  C17 UNK     1      -0.068  34.839 235.498  1.00  0.00     0.227 A 
ATOM      2  O2  UNK     1       0.945  35.858 235.579  1.00  0.00    -0.295 OA
ATOM      3  C21 UNK     1       0.670  33.639 236.067  1.00  0.00     0.281 A 
ATOM      4  O3  UNK     1       0.148  32.535 236.186  1.00  0.00    -0.268 OA
ATOM      5  N4  UNK     1       1.917  33.981 236.400  1.00  0.00    -0.277 N 
ATOM      6  C22 UNK     1       2.827  33.219 237.268  1.00  0.00     0.185 C 
ATOM      7  C27 UNK     1       3.679  34.090 238.193  1.00  0.00     0.243 C 
ATOM      8  O4  UNK     1       4.474  33.567 238.971  1.00  0.00    -0.271 OA
ATOM      9  N5  UNK     1       3.581  35.431 238.126  1.00  0.00    -0.338 N 
ATOM     10  C28 UNK     1       4.470  36.401 238.763  1.00  0.00     0.127 C 
ATOM     11  C29 UNK     1       3.925  37.788 238.417  1.00  0.00     0.022 C 
ATOM     12  C30 UNK     1       2.943  37.567 237.271  1.00  0.00     0.034 C 
ATOM     13  C31 UNK     1       2.487  36.114 237.429  1.00  0.00     0.173 C 
ATOM     14  C32 UNK     1       2.192  35.381 236.121  1.00  0.00     0.276 A 
ENDROOT
BRANCH   1  15
ATOM     15  N3  UNK     1      -0.514  34.744 234.110  1.00  0.00    -0.320 N 
ATOM     16  C1  UNK     1       0.197  34.393 233.030  1.00  0.00     0.229 C 
ATOM     17  O1  UNK     1       1.376  34.699 232.848  1.00  0.00    -0.273 OA
ATOM     18  H15 UNK     1      -1.474  34.971 233.945  1.00  0.00     0.166 HD
BRANCH  16  19
ATOM     19  C2  UNK     1      -0.598  33.636 231.998  1.00  0.00     0.118 C 
ATOM     20  C3  UNK     1      -1.895  34.441 231.829  1.00  0.00     0.135 C 
ATOM     21  N1  UNK     1      -2.600  33.923 230.666  1.00  0.00    -0.407 N 
ATOM     22  C4  UNK     1      -4.057  33.931 230.753  1.00  0.00     0.144 C 
ATOM     23  C15 UNK     1      -1.860  34.266 229.437  1.00  0.00     0.116 C 
ATOM     24  C6  UNK     1      -0.381  33.832 229.514  1.00  0.00    -0.027 C 
ATOM     25  C14 UNK     1      -2.683  33.751 228.223  1.00  0.00     0.072 C 
ATOM     26  C5  UNK     1       0.181  33.550 230.699  1.00  0.00    -0.001 C 
ATOM     27  C7  UNK     1       0.453  33.784 228.261  1.00  0.00    -0.015 A 
ATOM     28  C8  UNK     1       1.841  33.813 228.108  1.00  0.00     0.013 A 
ATOM     29  C12 UNK     1      -0.361  33.762 227.055  1.00  0.00     0.011 A 
ATOM     30  C9  UNK     1       2.385  33.784 226.801  1.00  0.00     0.003 A 
ATOM     31  C10 UNK     1       1.612  33.750 225.616  1.00  0.00     0.030 A 
ATOM     32  C11 UNK     1       0.207  33.737 225.688  1.00  0.00     0.044 A 
ATOM     33  N2  UNK     1      -0.837  33.703 224.811  1.00  0.00    -0.349 N 
ATOM     34  C16 UNK     1      -1.998  33.708 225.526  1.00  0.00     0.087 A 
ATOM     35  H14 UNK     1      -0.763  33.678 223.813  1.00  0.00     0.166 HD
ATOM     36  C13 UNK     1      -1.810  33.745 226.992  1.00  0.00    -0.008 A 
ATOM     37 Br1  UNK     1      -3.829  33.674 224.723  1.00  0.00    -0.031 Br
ENDBRANCH  16  19
ENDBRANCH   1  15
BRANCH   1  38
ATOM     38  C18 UNK     1      -1.293  35.166 236.375  1.00  0.00     0.043 C 
ATOM     39  C19 UNK     1      -2.620  34.676 235.781  1.00  0.00     0.015 C 
ATOM     40  C20 UNK     1      -1.406  36.652 236.638  1.00  0.00     0.015 C 
ENDBRANCH   1  38
BRANCH  14  41
ATOM     41  O5  UNK     1       3.318  35.456 235.224  1.00  0.00    -0.347 OA
ATOM     42  H40 UNK     1       4.048  35.874 235.665  1.00  0.00     0.215 HD
ENDBRANCH  14  41
BRANCH   6  43
ATOM     43  C23 UNK     1       3.796  32.586 236.277  1.00  0.00     0.039 C 
BRANCH  43  44
ATOM     44  C24 UNK     1       3.465  31.158 235.879  1.00  0.00    -0.020 C 
ATOM     45  C25 UNK     1       4.753  30.358 235.920  1.00  0.00     0.009 C 
ATOM     46  C26 UNK     1       2.856  31.098 234.484  1.00  0.00     0.009 C 
ENDBRANCH  43  44
ENDBRANCH   6  43
TORSDOF 6
ENDMDL
MODEL 5
REMARK VINA RESULT:      -8.0      3.790      9.806
REMARK  6 active torsions:
REMARK  status: ('A' for Active; 'I' for Inactive)
REMARK    1  A    between atoms: C1_2  and  C2_3 
REMARK       I    between atoms: C1_2  and  N3_21 
REMARK    2  A    between atoms: N3_21  and  C17_22 
REMARK    3  A    between atoms: C17_22  and  C18_24 
REMARK    4  A    between atoms: C22_30  and  C23_31 
REMARK    5  A    between atoms: C23_31  and  C24_32 
REMARK    6  A    between atoms: C32_42  and  O5_43 
ROOT
ATOM      1  C17 UNK     1      -0.556  35.187 232.779  1.00  0.00     0.227 A 
ATOM      2  O2  UNK     1      -1.072  36.347 232.099  1.00  0.00    -0.295 OA
ATOM      3  C21 UNK     1      -1.443  34.092 232.212  1.00  0.00     0.281 A 
ATOM      4  O3  UNK     1      -1.327  32.913 232.533  1.00  0.00    -0.268 OA
ATOM      5  N4  UNK     1      -2.319  34.609 231.348  1.00  0.00    -0.277 N 
ATOM      6  C22 UNK     1      -3.110  33.863 230.358  1.00  0.00     0.185 C 
ATOM      7  C27 UNK     1      -3.268  34.582 229.018  1.00  0.00     0.243 C 
ATOM      8  O4  UNK     1      -3.903  34.056 228.107  1.00  0.00    -0.271 OA
ATOM      9  N5  UNK     1      -2.738  35.809 228.852  1.00  0.00    -0.338 N 
ATOM     10  C28 UNK     1      -2.985  36.719 227.734  1.00  0.00     0.127 C 
ATOM     11  C29 UNK     1      -2.133  37.965 227.987  1.00  0.00     0.022 C 
ATOM     12  C30 UNK     1      -1.707  37.878 229.448  1.00  0.00     0.034 C 
ATOM     13  C31 UNK     1      -1.757  36.383 229.778  1.00  0.00     0.173 C 
ATOM     14  C32 UNK     1      -2.166  36.048 231.211  1.00  0.00     0.276 A 
ENDROOT
BRANCH   1  15
ATOM     15  N3  UNK     1      -0.636  35.425 234.218  1.00  0.00    -0.320 N 
ATOM     16  C1  UNK     1      -1.641  35.133 235.055  1.00  0.00     0.229 C 
ATOM     17  O1  UNK     1      -2.834  35.227 234.763  1.00  0.00    -0.273 OA
ATOM     18  H15 UNK     1       0.163  35.862 234.632  1.00  0.00     0.166 HD
BRANCH  16  19
ATOM     19  C2  UNK     1      -1.188  34.738 236.436  1.00  0.00     0.118 C 
ATOM     20  C3  UNK     1      -0.874  33.238 236.336  1.00  0.00     0.135 C 
ATOM     21  N1  UNK     1      -0.187  32.837 237.554  1.00  0.00    -0.407 N 
ATOM     22  C4  UNK     1      -0.479  31.490 238.034  1.00  0.00     0.144 C 
ATOM     23  C15 UNK     1       1.162  33.433 237.588  1.00  0.00     0.116 C 
ATOM     24  C6  UNK     1       1.124  34.960 237.367  1.00  0.00    -0.027 C 
ATOM     25  C14 UNK     1       1.879  32.926 238.870  1.00  0.00     0.072 C 
ATOM     26  C5  UNK     1       0.037  35.540 236.834  1.00  0.00    -0.001 C 
ATOM     27  C7  UNK     1       2.333  35.797 237.692  1.00  0.00    -0.015 A 
ATOM     28  C8  UNK     1       2.690  37.069 237.238  1.00  0.00     0.013 A 
ATOM     29  C12 UNK     1       3.264  35.105 238.570  1.00  0.00     0.011 A 
ATOM     30  C9  UNK     1       3.912  37.633 237.679  1.00  0.00     0.003 A 
ATOM     31  C10 UNK     1       4.825  36.982 238.542  1.00  0.00     0.030 A 
ATOM     32  C11 UNK     1       4.544  35.692 239.027  1.00  0.00     0.044 A 
ATOM     33  N2  UNK     1       5.145  34.780 239.843  1.00  0.00    -0.349 N 
ATOM     34  C16 UNK     1       4.342  33.681 239.923  1.00  0.00     0.087 A 
ATOM     35  H14 UNK     1       6.025  34.897 240.305  1.00  0.00     0.166 HD
ATOM     36  C13 UNK     1       3.093  33.781 239.137  1.00  0.00    -0.008 A 
ATOM     37 Br1  UNK     1       4.759  32.041 240.990  1.00  0.00    -0.031 Br
ENDBRANCH  16  19
ENDBRANCH   1  15
BRANCH   1  38
ATOM     38  C18 UNK     1       0.916  34.910 232.419  1.00  0.00     0.043 C 
ATOM     39  C19 UNK     1       1.911  35.794 233.184  1.00  0.00     0.015 C 
ATOM     40  C20 UNK     1       1.167  35.082 230.935  1.00  0.00     0.015 C 
ENDBRANCH   1  38
BRANCH  14  41
ATOM     41  O5  UNK     1      -3.419  36.676 231.549  1.00  0.00    -0.347 OA
ATOM     42  H40 UNK     1      -3.526  37.468 231.035  1.00  0.00     0.215 HD
ENDBRANCH  14  41
BRANCH   6  43
ATOM     43  C23 UNK     1      -4.500  33.832 230.983  1.00  0.00     0.039 C 
BRANCH  43  44
ATOM     44  C24 UNK     1      -5.065  32.443 231.223  1.00  0.00    -0.020 C 
ATOM     45  C25 UNK     1      -6.565  32.511 231.004  1.00  0.00     0.009 C 
ATOM     46  C26 UNK     1      -4.763  31.957 232.635  1.00  0.00     0.009 C 
ENDBRANCH  43  44
ENDBRANCH   6  43
TORSDOF 6
ENDMDL
MODEL 6
REMARK VINA RESULT:      -8.0      2.189      4.549
REMARK  6 active torsions:
REMARK  status: ('A' for Active; 'I' for Inactive)
REMARK    1  A    between atoms: C1_2  and  C2_3 
REMARK       I    between atoms: C1_2  and  N3_21 
REMARK    2  A    between atoms: N3_21  and  C17_22 
REMARK    3  A    between atoms: C17_22  and  C18_24 
REMARK    4  A    between atoms: C22_30  and  C23_31 
REMARK    5  A    between atoms: C23_31  and  C24_32 
REMARK    6  A    between atoms: C32_42  and  O5_43 
ROOT
ATOM      1  C17 UNK     1       1.329  31.890 235.441  1.00  0.00     0.227 A 
ATOM      2  O2  UNK     1       1.179  31.475 236.812  1.00  0.00    -0.295 OA
ATOM      3  C21 UNK     1       1.988  33.248 235.613  1.00  0.00     0.281 A 
ATOM      4  O3  UNK     1       2.303  33.957 234.661  1.00  0.00    -0.268 OA
ATOM      5  N4  UNK     1       2.157  33.519 236.909  1.00  0.00    -0.277 N 
ATOM      6  C22 UNK     1       3.035  34.553 237.476  1.00  0.00     0.185 C 
ATOM      7  C27 UNK     1       3.750  34.127 238.758  1.00  0.00     0.243 C 
ATOM      8  O4  UNK     1       4.517  34.903 239.324  1.00  0.00    -0.271 OA
ATOM      9  N5  UNK     1       3.510  32.911 239.285  1.00  0.00    -0.338 N 
ATOM     10  C28 UNK     1       3.925  32.437 240.605  1.00  0.00     0.127 C 
ATOM     11  C29 UNK     1       3.444  30.990 240.722  1.00  0.00     0.022 C 
ATOM     12  C30 UNK     1       2.433  30.803 239.596  1.00  0.00     0.034 C 
ATOM     13  C31 UNK     1       2.828  31.845 238.545  1.00  0.00     0.173 C 
ATOM     14  C32 UNK     1       1.665  32.446 237.759  1.00  0.00     0.276 A 
ENDROOT
BRANCH   1  15
ATOM     15  N3  UNK     1       0.014  31.867 234.807  1.00  0.00    -0.320 N 
ATOM     16  C1  UNK     1      -1.024  32.690 235.013  1.00  0.00     0.229 C 
ATOM     17  O1  UNK     1      -1.332  33.152 236.113  1.00  0.00    -0.273 OA
ATOM     18  H15 UNK     1      -0.131  31.144 234.131  1.00  0.00     0.166 HD
BRANCH  16  19
ATOM     19  C2  UNK     1      -1.845  32.955 233.780  1.00  0.00     0.118 C 
ATOM     20  C3  UNK     1      -2.803  34.088 234.178  1.00  0.00     0.135 C 
ATOM     21  N1  UNK     1      -3.450  34.580 232.971  1.00  0.00    -0.407 N 
ATOM     22  C4  UNK     1      -4.834  35.016 233.127  1.00  0.00     0.144 C 
ATOM     23  C15 UNK     1      -2.468  35.287 232.128  1.00  0.00     0.116 C 
ATOM     24  C6  UNK     1      -1.215  34.427 231.858  1.00  0.00    -0.027 C 
ATOM     25  C14 UNK     1      -3.217  35.846 230.887  1.00  0.00     0.072 C 
ATOM     26  C5  UNK     1      -0.944  33.363 232.630  1.00  0.00    -0.001 C 
ATOM     27  C7  UNK     1      -0.257  34.819 230.764  1.00  0.00    -0.015 A 
ATOM     28  C8  UNK     1       1.083  34.470 230.580  1.00  0.00     0.013 A 
ATOM     29  C12 UNK     1      -0.852  35.747 229.814  1.00  0.00     0.011 A 
ATOM     30  C9  UNK     1       1.781  35.003 229.469  1.00  0.00     0.003 A 
ATOM     31  C10 UNK     1       1.217  35.896 228.527  1.00  0.00     0.030 A 
ATOM     32  C11 UNK     1      -0.122  36.308 228.655  1.00  0.00     0.044 A 
ATOM     33  N2  UNK     1      -0.986  37.118 227.979  1.00  0.00    -0.349 N 
ATOM     34  C16 UNK     1      -2.185  37.102 228.628  1.00  0.00     0.087 A 
ATOM     35  H14 UNK     1      -0.776  37.635 227.148  1.00  0.00     0.166 HD
ATOM     36  C13 UNK     1      -2.214  36.246 229.833  1.00  0.00    -0.008 A 
ATOM     37 Br1  UNK     1      -3.802  38.130 228.055  1.00  0.00    -0.031 Br
ENDBRANCH  16  19
ENDBRANCH   1  15
BRANCH   1  38
ATOM     38  C18 UNK     1       2.261  30.951 234.650  1.00  0.00     0.043 C 
ATOM     39  C19 UNK     1       3.751  31.183 234.937  1.00  0.00     0.015 C 
ATOM     40  C20 UNK     1       2.036  31.074 233.158  1.00  0.00     0.015 C 
ENDBRANCH   1  38
BRANCH  14  41
ATOM     41  O5  UNK     1       0.667  32.988 238.648  1.00  0.00    -0.347 OA
ATOM     42  H40 UNK     1       0.699  32.527 239.478  1.00  0.00     0.215 HD
ENDBRANCH  14  41
BRANCH   6  43
ATOM     43  C23 UNK     1       2.056  35.647 237.886  1.00  0.00     0.039 C 
BRANCH  43  44
ATOM     44  C24 UNK     1       2.085  36.892 237.017  1.00  0.00    -0.020 C 
ATOM     45  C25 UNK     1       3.374  37.633 237.319  1.00  0.00     0.009 C 
ATOM     46  C26 UNK     1       0.887  37.791 237.295  1.00  0.00     0.009 C 
ENDBRANCH  43  44
ENDBRANCH   6  43
TORSDOF 6
ENDMDL
MODEL 7
REMARK VINA RESULT:      -7.9      3.787     10.283
REMARK  6 active torsions:
REMARK  status: ('A' for Active; 'I' for Inactive)
REMARK    1  A    between atoms: C1_2  and  C2_3 
REMARK       I    between atoms: C1_2  and  N3_21 
REMARK    2  A    between atoms: N3_21  and  C17_22 
REMARK    3  A    between atoms: C17_22  and  C18_24 
REMARK    4  A    between atoms: C22_30  and  C23_31 
REMARK    5  A    between atoms: C23_31  and  C24_32 
REMARK    6  A    between atoms: C32_42  and  O5_43 
ROOT
ATOM      1  C17 UNK     1      -1.134  36.563 228.840  1.00  0.00     0.227 A 
ATOM      2  O2  UNK     1      -1.578  37.932 228.788  1.00  0.00    -0.295 OA
ATOM      3  C21 UNK     1      -2.196  35.874 228.000  1.00  0.00     0.281 A 
ATOM      4  O3  UNK     1      -2.185  34.667 227.779  1.00  0.00    -0.268 OA
ATOM      5  N4  UNK     1      -3.090  36.765 227.565  1.00  0.00    -0.277 N 
ATOM      6  C22 UNK     1      -4.060  36.566 226.479  1.00  0.00     0.185 C 
ATOM      7  C27 UNK     1      -4.270  37.799 225.599  1.00  0.00     0.243 C 
ATOM      8  O4  UNK     1      -5.052  37.756 224.652  1.00  0.00    -0.271 OA
ATOM      9  N5  UNK     1      -3.620  38.944 225.886  1.00  0.00    -0.338 N 
ATOM     10  C28 UNK     1      -3.873  40.259 225.298  1.00  0.00     0.127 C 
ATOM     11  C29 UNK     1      -2.860  41.220 225.924  1.00  0.00     0.022 C 
ATOM     12  C30 UNK     1      -2.299  40.488 227.138  1.00  0.00     0.034 C 
ATOM     13  C31 UNK     1      -2.489  39.003 226.817  1.00  0.00     0.173 C 
ATOM     14  C32 UNK     1      -2.785  38.112 228.022  1.00  0.00     0.276 A 
ENDROOT
BRANCH   1  15
ATOM     15  N3  UNK     1      -1.037  36.165 230.242  1.00  0.00    -0.320 N 
ATOM     16  C1  UNK     1      -2.029  35.869 231.093  1.00  0.00     0.229 C 
ATOM     17  O1  UNK     1      -3.116  36.449 231.117  1.00  0.00    -0.273 OA
ATOM     18  H15 UNK     1      -0.111  36.105 230.615  1.00  0.00     0.166 HD
BRANCH  16  19
ATOM     19  C2  UNK     1      -1.677  34.795 232.089  1.00  0.00     0.118 C 
ATOM     20  C3  UNK     1      -0.957  33.715 231.268  1.00  0.00     0.135 C 
ATOM     21  N1  UNK     1      -0.358  32.766 232.194  1.00  0.00    -0.407 N 
ATOM     22  C4  UNK     1      -0.335  31.376 231.752  1.00  0.00     0.144 C 
ATOM     23  C15 UNK     1       0.761  33.406 232.912  1.00  0.00     0.116 C 
ATOM     24  C6  UNK     1       0.339  34.738 233.568  1.00  0.00    -0.027 C 
ATOM     25  C14 UNK     1       1.408  32.340 233.839  1.00  0.00     0.072 C 
ATOM     26  C5  UNK     1      -0.782  35.362 233.174  1.00  0.00    -0.001 C 
ATOM     27  C7  UNK     1       1.220  35.373 234.612  1.00  0.00    -0.015 A 
ATOM     28  C8  UNK     1       1.276  36.698 235.050  1.00  0.00     0.013 A 
ATOM     29  C12 UNK     1       2.177  34.432 235.175  1.00  0.00     0.011 A 
ATOM     30  C9  UNK     1       2.227  37.051 236.038  1.00  0.00     0.003 A 
ATOM     31  C10 UNK     1       3.157  36.149 236.607  1.00  0.00     0.030 A 
ATOM     32  C11 UNK     1       3.175  34.802 236.204  1.00  0.00     0.044 A 
ATOM     33  N2  UNK     1       3.885  33.678 236.508  1.00  0.00    -0.349 N 
ATOM     34  C16 UNK     1       3.407  32.651 235.749  1.00  0.00     0.087 A 
ATOM     35  H14 UNK     1       4.629  33.618 237.174  1.00  0.00     0.166 HD
ATOM     36  C13 UNK     1       2.297  33.024 234.848  1.00  0.00    -0.008 A 
ATOM     37 Br1  UNK     1       4.106  30.777 235.801  1.00  0.00    -0.031 Br
ENDBRANCH  16  19
ENDBRANCH   1  15
BRANCH   1  38
ATOM     38  C18 UNK     1       0.251  36.377 228.191  1.00  0.00     0.043 C 
ATOM     39  C19 UNK     1       1.233  35.581 229.060  1.00  0.00     0.015 C 
ATOM     40  C20 UNK     1       0.887  37.708 227.847  1.00  0.00     0.015 C 
ENDBRANCH   1  38
BRANCH  14  41
ATOM     41  O5  UNK     1      -3.915  38.610 228.766  1.00  0.00    -0.347 OA
ATOM     42  H40 UNK     1      -3.609  39.040 229.556  1.00  0.00     0.215 HD
ENDBRANCH  14  41
BRANCH   6  43
ATOM     43  C23 UNK     1      -5.373  36.356 227.225  1.00  0.00     0.039 C 
BRANCH  43  44
ATOM     44  C24 UNK     1      -6.146  35.112 226.824  1.00  0.00    -0.020 C 
ATOM     45  C25 UNK     1      -5.224  34.249 225.982  1.00  0.00     0.009 C 
ATOM     46  C26 UNK     1      -7.398  35.468 226.031  1.00  0.00     0.009 C 
ENDBRANCH  43  44
ENDBRANCH   6  43
TORSDOF 6
ENDMDL
MODEL 8
REMARK VINA RESULT:      -7.7      2.472      4.648
REMARK  6 active torsions:
REMARK  status: ('A' for Active; 'I' for Inactive)
REMARK    1  A    between atoms: C1_2  and  C2_3 
REMARK       I    between atoms: C1_2  and  N3_21 
REMARK    2  A    between atoms: N3_21  and  C17_22 
REMARK    3  A    between atoms: C17_22  and  C18_24 
REMARK    4  A    between atoms: C22_30  and  C23_31 
REMARK    5  A    between atoms: C23_31  and  C24_32 
REMARK    6  A    between atoms: C32_42  and  O5_43 
ROOT
ATOM      1  C17 UNK     1      -0.378  33.514 232.087  1.00  0.00     0.227 A 
ATOM      2  O2  UNK     1      -1.108  32.767 233.078  1.00  0.00    -0.295 OA
ATOM      3  C21 UNK     1       0.266  34.592 232.941  1.00  0.00     0.281 A 
ATOM      4  O3  UNK     1       1.001  35.457 232.474  1.00  0.00    -0.268 OA
ATOM      5  N4  UNK     1      -0.084  34.438 234.220  1.00  0.00    -0.277 N 
ATOM      6  C22 UNK     1       0.571  35.053 235.383  1.00  0.00     0.185 C 
ATOM      7  C27 UNK     1       0.664  34.135 236.603  1.00  0.00     0.243 C 
ATOM      8  O4  UNK     1       1.198  34.533 237.636  1.00  0.00    -0.271 OA
ATOM      9  N5  UNK     1       0.127  32.900 236.552  1.00  0.00    -0.338 N 
ATOM     10  C28 UNK     1      -0.072  31.991 237.681  1.00  0.00     0.127 C 
ATOM     11  C29 UNK     1      -0.680  30.710 237.108  1.00  0.00     0.022 C 
ATOM     12  C30 UNK     1      -1.157  31.075 235.707  1.00  0.00     0.034 C 
ATOM     13  C31 UNK     1      -0.282  32.263 235.297  1.00  0.00     0.173 C 
ATOM     14  C32 UNK     1      -0.969  33.299 234.410  1.00  0.00     0.276 A 
ENDROOT
BRANCH   1  15
ATOM     15  N3  UNK     1      -1.319  33.956 231.061  1.00  0.00    -0.320 N 
ATOM     16  C1  UNK     1      -1.772  35.195 230.826  1.00  0.00     0.229 C 
ATOM     17  O1  UNK     1      -2.026  36.018 231.709  1.00  0.00    -0.273 OA
ATOM     18  H15 UNK     1      -1.670  33.242 230.454  1.00  0.00     0.166 HD
BRANCH  16  19
ATOM     19  C2  UNK     1      -2.020  35.488 229.370  1.00  0.00     0.118 C 
ATOM     20  C3  UNK     1      -3.548  35.459 229.215  1.00  0.00     0.135 C 
ATOM     21  N1  UNK     1      -3.880  35.986 227.900  1.00  0.00    -0.407 N 
ATOM     22  C4  UNK     1      -5.034  35.377 227.246  1.00  0.00     0.144 C 
ATOM     23  C15 UNK     1      -3.592  37.432 227.853  1.00  0.00     0.116 C 
ATOM     24  C6  UNK     1      -2.151  37.748 228.306  1.00  0.00    -0.027 C 
ATOM     25  C14 UNK     1      -4.022  37.960 226.456  1.00  0.00     0.072 C 
ATOM     26  C5  UNK     1      -1.447  36.844 229.005  1.00  0.00    -0.001 C 
ATOM     27  C7  UNK     1      -1.553  39.100 228.019  1.00  0.00    -0.015 A 
ATOM     28  C8  UNK     1      -0.482  39.754 228.631  1.00  0.00     0.013 A 
ATOM     29  C12 UNK     1      -2.275  39.813 226.975  1.00  0.00     0.011 A 
ATOM     30  C9  UNK     1      -0.130  41.052 228.187  1.00  0.00     0.003 A 
ATOM     31  C10 UNK     1      -0.810  41.757 227.166  1.00  0.00     0.030 A 
ATOM     32  C11 UNK     1      -1.910  41.172 226.514  1.00  0.00     0.044 A 
ATOM     33  N2  UNK     1      -2.782  41.517 225.524  1.00  0.00    -0.349 N 
ATOM     34  C16 UNK     1      -3.653  40.483 225.341  1.00  0.00     0.087 A 
ATOM     35  H14 UNK     1      -2.783  42.380 225.018  1.00  0.00     0.166 HD
ATOM     36  C13 UNK     1      -3.418  39.324 226.228  1.00  0.00    -0.008 A 
ATOM     37 Br1  UNK     1      -5.144  40.474 224.007  1.00  0.00    -0.031 Br
ENDBRANCH  16  19
ENDBRANCH   1  15
BRANCH   1  38
ATOM     38  C18 UNK     1       0.711  32.663 231.406  1.00  0.00     0.043 C 
ATOM     39  C19 UNK     1       0.690  32.753 229.874  1.00  0.00     0.015 C 
ATOM     40  C20 UNK     1       0.606  31.205 231.801  1.00  0.00     0.015 C 
ENDBRANCH   1  38
BRANCH  14  41
ATOM     41  O5  UNK     1      -2.192  33.765 235.015  1.00  0.00    -0.347 OA
ATOM     42  H40 UNK     1      -2.935  33.405 234.546  1.00  0.00     0.215 HD
ENDBRANCH  14  41
BRANCH   6  43
ATOM     43  C23 UNK     1      -0.393  36.168 235.771  1.00  0.00     0.039 C 
BRANCH  43  44
ATOM     44  C24 UNK     1       0.180  37.211 236.715  1.00  0.00    -0.020 C 
ATOM     45  C25 UNK     1      -0.874  38.286 236.906  1.00  0.00     0.009 C 
ATOM     46  C26 UNK     1       1.457  37.824 236.156  1.00  0.00     0.009 C 
ENDBRANCH  43  44
ENDBRANCH   6  43
TORSDOF 6
ENDMDL
MODEL 9
REMARK VINA RESULT:      -7.6      4.124      9.439
REMARK  6 active torsions:
REMARK  status: ('A' for Active; 'I' for Inactive)
REMARK    1  A    between atoms: C1_2  and  C2_3 
REMARK       I    between atoms: C1_2  and  N3_21 
REMARK    2  A    between atoms: N3_21  and  C17_22 
REMARK    3  A    between atoms: C17_22  and  C18_24 
REMARK    4  A    between atoms: C22_30  and  C23_31 
REMARK    5  A    between atoms: C23_31  and  C24_32 
REMARK    6  A    between atoms: C32_42  and  O5_43 
ROOT
ATOM      1  C17 UNK     1      -1.543  34.718 230.235  1.00  0.00     0.227 A 
ATOM      2  O2  UNK     1      -2.590  34.152 229.424  1.00  0.00    -0.295 OA
ATOM      3  C21 UNK     1      -0.317  34.418 229.389  1.00  0.00     0.281 A 
ATOM      4  O3  UNK     1       0.816  34.750 229.725  1.00  0.00    -0.268 OA
ATOM      5  N4  UNK     1      -0.671  33.771 228.277  1.00  0.00    -0.277 N 
ATOM      6  C22 UNK     1       0.152  33.599 227.070  1.00  0.00     0.185 C 
ATOM      7  C27 UNK     1      -0.635  33.698 225.763  1.00  0.00     0.243 C 
ATOM      8  O4  UNK     1      -0.057  33.578 224.685  1.00  0.00    -0.271 OA
ATOM      9  N5  UNK     1      -1.969  33.883 225.797  1.00  0.00    -0.338 N 
ATOM     10  C28 UNK     1      -2.892  33.775 224.668  1.00  0.00     0.127 C 
ATOM     11  C29 UNK     1      -4.284  34.105 225.207  1.00  0.00     0.022 C 
ATOM     12  C30 UNK     1      -4.163  34.028 226.725  1.00  0.00     0.034 C 
ATOM     13  C31 UNK     1      -2.683  34.296 227.009  1.00  0.00     0.173 C 
ATOM     14  C32 UNK     1      -2.106  33.547 228.209  1.00  0.00     0.276 A 
ENDROOT
BRANCH   1  15
ATOM     15  N3  UNK     1      -1.602  34.101 231.557  1.00  0.00    -0.320 N 
ATOM     16  C1  UNK     1      -1.343  32.830 231.895  1.00  0.00     0.229 C 
ATOM     17  O1  UNK     1      -1.635  31.856 231.199  1.00  0.00    -0.273 OA
ATOM     18  H15 UNK     1      -1.870  34.705 232.308  1.00  0.00     0.166 HD
BRANCH  16  19
ATOM     19  C2  UNK     1      -0.716  32.677 233.256  1.00  0.00     0.118 C 
ATOM     20  C3  UNK     1       0.771  32.410 232.979  1.00  0.00     0.135 C 
ATOM     21  N1  UNK     1       1.491  32.508 234.239  1.00  0.00    -0.407 N 
ATOM     22  C4  UNK     1       2.622  31.600 234.396  1.00  0.00     0.144 C 
ATOM     23  C15 UNK     1       1.508  33.910 234.699  1.00  0.00     0.116 C 
ATOM     24  C6  UNK     1       0.091  34.521 234.741  1.00  0.00    -0.027 C 
ATOM     25  C14 UNK     1       2.340  33.974 236.010  1.00  0.00     0.072 C 
ATOM     26  C5  UNK     1      -0.916  33.942 234.068  1.00  0.00    -0.001 C 
ATOM     27  C7  UNK     1      -0.151  35.806 235.486  1.00  0.00    -0.015 A 
ATOM     28  C8  UNK     1      -1.186  36.735 235.357  1.00  0.00     0.013 A 
ATOM     29  C12 UNK     1       0.915  36.106 236.431  1.00  0.00     0.011 A 
ATOM     30  C9  UNK     1      -1.168  37.895 236.170  1.00  0.00     0.003 A 
ATOM     31  C10 UNK     1      -0.148  38.199 237.104  1.00  0.00     0.030 A 
ATOM     32  C11 UNK     1       0.937  37.321 237.277  1.00  0.00     0.044 A 
ATOM     33  N2  UNK     1       2.062  37.265 238.046  1.00  0.00    -0.349 N 
ATOM     34  C16 UNK     1       2.733  36.118 237.739  1.00  0.00     0.087 A 
ATOM     35  H14 UNK     1       2.346  37.948 238.719  1.00  0.00     0.166 HD
ATOM     36  C13 UNK     1       2.081  35.288 236.705  1.00  0.00    -0.008 A 
ATOM     37 Br1  UNK     1       4.459  35.552 238.578  1.00  0.00    -0.031 Br
ENDBRANCH  16  19
ENDBRANCH   1  15
BRANCH   1  38
ATOM     38  C18 UNK     1      -1.703  36.241 230.407  1.00  0.00     0.043 C 
ATOM     39  C19 UNK     1      -1.544  36.713 231.859  1.00  0.00     0.015 C 
ATOM     40  C20 UNK     1      -3.043  36.721 229.892  1.00  0.00     0.015 C 
ENDBRANCH   1  38
BRANCH  14  41
ATOM     41  O5  UNK     1      -2.343  32.129 228.094  1.00  0.00    -0.347 OA
ATOM     42  H40 UNK     1      -2.293  31.728 228.953  1.00  0.00     0.215 HD
ENDBRANCH  14  41
BRANCH   6  43
ATOM     43  C23 UNK     1       0.611  32.149 227.172  1.00  0.00     0.039 C 
BRANCH  43  44
ATOM     44  C24 UNK     1       2.117  31.951 227.142  1.00  0.00    -0.020 C 
ATOM     45  C25 UNK     1       2.762  33.324 227.156  1.00  0.00     0.009 C 
ATOM     46  C26 UNK     1       2.551  31.182 225.900  1.00  0.00     0.009 C 
ENDBRANCH  43  44
ENDBRANCH   6  43
TORSDOF 6
ENDMDL
