MODEL 1
REMARK VINA RESULT:      -7.5      0.000      0.000
REMARK  1 active torsions:
REMARK  status: ('A' for Active; 'I' for Inactive)
REMARK    1  A    between atoms: O1_1  and  C16_17 
ROOT
ATOM      1  C1  UNK     1       2.347  34.022 235.250  1.00  0.00    -0.002 C 
ATOM      2  C2  UNK     1       2.307  35.000 236.482  1.00  0.00    -0.036 C 
ATOM      3  C3  UNK     1       1.211  34.341 234.219  1.00  0.00    -0.004 C 
ATOM      4  C4  UNK     1       1.358  33.370 233.048  1.00  0.00     0.005 C 
ATOM      5  C5  UNK     1       2.400  36.456 235.921  1.00  0.00    -0.004 C 
ATOM      6  C6  UNK     1       1.183  31.898 233.489  1.00  0.00    -0.022 C 
ATOM      7  C7  UNK     1       2.411  32.513 235.621  1.00  0.00     0.007 C 
ATOM      8  C8  UNK     1       1.272  35.804 233.759  1.00  0.00     0.006 C 
ATOM      9  C9  UNK     1       1.272  36.780 234.935  1.00  0.00     0.006 C 
ATOM     10  C10 UNK     1       2.365  31.564 234.404  1.00  0.00     0.014 C 
ATOM     11  C11 UNK     1       3.535  34.769 237.406  1.00  0.00     0.012 C 
ATOM     12  C12 UNK     1       2.499  37.519 237.030  1.00  0.00     0.037 C 
ATOM     13  C13 UNK     1       0.491  33.502 231.798  1.00  0.00     0.033 C 
ATOM     14  C14 UNK     1       1.019  34.780 237.317  1.00  0.00     0.016 C 
ATOM     15  C15 UNK     1       3.682  35.826 238.508  1.00  0.00     0.032 C 
ATOM     16  C16 UNK     1       3.681  37.254 237.964  1.00  0.00     0.118 C 
ATOM     17  C17 UNK     1       1.141  31.258 232.126  1.00  0.00    -0.021 C 
ATOM     18  C18 UNK     1      -0.155  31.570 234.189  1.00  0.00     0.020 C 
ATOM     19  C19 UNK     1       0.710  32.135 231.205  1.00  0.00    -0.029 C 
ENDROOT
BRANCH  16  20
ATOM     20  O1  UNK     1       4.890  37.487 237.242  1.00  0.00    -0.396 OA
ATOM     21  H30 UNK     1       5.622  37.471 237.883  1.00  0.00     0.210 HD
ENDBRANCH  16  20
TORSDOF 1
ENDMDL
MODEL 2
REMARK VINA RESULT:      -6.9      0.812      0.817
REMARK  1 active torsions:
REMARK  status: ('A' for Active; 'I' for Inactive)
REMARK    1  A    between atoms: O1_1  and  C16_17 
ROOT
ATOM      1  C1  UNK     1       1.957  33.571 234.749  1.00  0.00    -0.002 C 
ATOM      2  C2  UNK     1       1.881  34.623 235.917  1.00  0.00    -0.036 C 
ATOM      3  C3  UNK     1       1.002  33.949 233.565  1.00  0.00    -0.004 C 
ATOM      4  C4  UNK     1       1.175  32.896 232.471  1.00  0.00     0.005 C 
ATOM      5  C5  UNK     1       2.216  36.021 235.304  1.00  0.00    -0.004 C 
ATOM      6  C6  UNK     1       0.774  31.484 232.957  1.00  0.00    -0.022 C 
ATOM      7  C7  UNK     1       1.794  32.091 235.198  1.00  0.00     0.007 C 
ATOM      8  C8  UNK     1       1.293  35.364 233.048  1.00  0.00     0.006 C 
ATOM      9  C9  UNK     1       1.264  36.406 234.165  1.00  0.00     0.006 C 
ATOM     10  C10 UNK     1       1.786  31.078 234.032  1.00  0.00     0.014 C 
ATOM     11  C11 UNK     1       2.951  34.315 237.002  1.00  0.00     0.012 C 
ATOM     12  C12 UNK     1       2.303  37.134 236.363  1.00  0.00     0.037 C 
ATOM     13  C13 UNK     1       0.490  33.045 231.115  1.00  0.00     0.033 C 
ATOM     14  C14 UNK     1       0.484  34.601 236.587  1.00  0.00     0.016 C 
ATOM     15  C15 UNK     1       3.085  35.415 238.062  1.00  0.00     0.032 C 
ATOM     16  C16 UNK     1       3.320  36.797 237.454  1.00  0.00     0.118 C 
ATOM     17  C17 UNK     1       0.824  30.768 231.632  1.00  0.00    -0.021 C 
ATOM     18  C18 UNK     1      -0.670  31.352 233.493  1.00  0.00     0.020 C 
ATOM     19  C19 UNK     1       0.617  31.628 230.621  1.00  0.00    -0.029 C 
ENDROOT
BRANCH  16  20
ATOM     20  O1  UNK     1       4.628  36.849 236.884  1.00  0.00    -0.396 OA
ATOM     21  H30 UNK     1       5.268  36.724 237.607  1.00  0.00     0.210 HD
ENDBRANCH  16  20
TORSDOF 1
ENDMDL
MODEL 3
REMARK VINA RESULT:      -6.8      2.914      4.412
REMARK  1 active torsions:
REMARK  status: ('A' for Active; 'I' for Inactive)
REMARK    1  A    between atoms: O1_1  and  C16_17 
ROOT
ATOM      1  C1  UNK     1       1.774  36.166 237.422  1.00  0.00    -0.002 C 
ATOM      2  C2  UNK     1       3.257  35.844 237.841  1.00  0.00    -0.036 C 
ATOM      3  C3  UNK     1       1.061  34.913 236.807  1.00  0.00    -0.004 C 
ATOM      4  C4  UNK     1      -0.376  35.312 236.470  1.00  0.00     0.005 C 
ATOM      5  C5  UNK     1       3.206  34.638 238.834  1.00  0.00    -0.004 C 
ATOM      6  C6  UNK     1      -0.432  36.441 235.416  1.00  0.00    -0.022 C 
ATOM      7  C7  UNK     1       1.610  37.438 236.543  1.00  0.00     0.007 C 
ATOM      8  C8  UNK     1       1.112  33.717 237.767  1.00  0.00     0.006 C 
ATOM      9  C9  UNK     1       2.536  33.402 238.224  1.00  0.00     0.006 C 
ATOM     10  C10 UNK     1       0.162  37.692 236.070  1.00  0.00     0.014 C 
ATOM     11  C11 UNK     1       3.887  37.050 238.593  1.00  0.00     0.012 C 
ATOM     12  C12 UNK     1       4.584  34.294 239.427  1.00  0.00     0.037 C 
ATOM     13  C13 UNK     1      -1.389  34.280 235.983  1.00  0.00     0.033 C 
ATOM     14  C14 UNK     1       4.126  35.536 236.595  1.00  0.00     0.016 C 
ATOM     15  C15 UNK     1       5.250  36.737 239.221  1.00  0.00     0.032 C 
ATOM     16  C16 UNK     1       5.218  35.501 240.120  1.00  0.00     0.118 C 
ATOM     17  C17 UNK     1      -1.914  36.421 235.144  1.00  0.00    -0.021 C 
ATOM     18  C18 UNK     1       0.282  36.137 234.079  1.00  0.00     0.020 C 
ATOM     19  C19 UNK     1      -2.427  35.209 235.412  1.00  0.00    -0.029 C 
ENDROOT
BRANCH  16  20
ATOM     20  O1  UNK     1       4.469  35.791 241.300  1.00  0.00    -0.396 OA
ATOM     21  H30 UNK     1       5.069  36.229 241.929  1.00  0.00     0.210 HD
ENDBRANCH  16  20
TORSDOF 1
ENDMDL
MODEL 4
REMARK VINA RESULT:      -6.5      2.686      5.630
REMARK  1 active torsions:
REMARK  status: ('A' for Active; 'I' for Inactive)
REMARK    1  A    between atoms: O1_1  and  C16_17 
ROOT
ATOM      1  C1  UNK     1       3.595  34.277 237.671  1.00  0.00    -0.002 C 
ATOM      2  C2  UNK     1       2.352  34.781 236.847  1.00  0.00    -0.036 C 
ATOM      3  C3  UNK     1       3.769  32.723 237.565  1.00  0.00    -0.004 C 
ATOM      4  C4  UNK     1       5.016  32.339 238.362  1.00  0.00     0.005 C 
ATOM      5  C5  UNK     1       2.548  34.300 235.372  1.00  0.00    -0.004 C 
ATOM      6  C6  UNK     1       4.878  32.689 239.861  1.00  0.00    -0.022 C 
ATOM      7  C7  UNK     1       3.648  34.787 239.139  1.00  0.00     0.007 C 
ATOM      8  C8  UNK     1       3.863  32.272 236.102  1.00  0.00     0.006 C 
ATOM      9  C9  UNK     1       2.689  32.777 235.264  1.00  0.00     0.006 C 
ATOM     10  C10 UNK     1       4.826  34.216 239.959  1.00  0.00     0.014 C 
ATOM     11  C11 UNK     1       2.296  36.334 236.834  1.00  0.00     0.012 C 
ATOM     12  C12 UNK     1       1.462  34.832 234.420  1.00  0.00     0.037 C 
ATOM     13  C13 UNK     1       5.552  30.909 238.348  1.00  0.00     0.033 C 
ATOM     14  C14 UNK     1       1.032  34.248 237.461  1.00  0.00     0.016 C 
ATOM     15  C15 UNK     1       1.242  36.902 235.875  1.00  0.00     0.032 C 
ATOM     16  C16 UNK     1       1.381  36.359 234.454  1.00  0.00     0.118 C 
ATOM     17  C17 UNK     1       6.112  31.989 240.370  1.00  0.00    -0.021 C 
ATOM     18  C18 UNK     1       3.665  32.057 240.581  1.00  0.00     0.020 C 
ATOM     19  C19 UNK     1       6.449  30.975 239.556  1.00  0.00    -0.029 C 
ENDROOT
BRANCH  16  20
ATOM     20  O1  UNK     1       2.563  36.889 233.856  1.00  0.00    -0.396 OA
ATOM     21  H30 UNK     1       2.308  37.682 233.352  1.00  0.00     0.210 HD
ENDBRANCH  16  20
TORSDOF 1
ENDMDL
MODEL 5
REMARK VINA RESULT:      -6.4      8.614     10.203
REMARK  1 active torsions:
REMARK  status: ('A' for Active; 'I' for Inactive)
REMARK    1  A    between atoms: O1_1  and  C16_17 
ROOT
ATOM      1  C1  UNK     1      -1.051  38.986 227.428  1.00  0.00    -0.002 C 
ATOM      2  C2  UNK     1      -0.185  40.280 227.661  1.00  0.00    -0.036 C 
ATOM      3  C3  UNK     1      -2.565  39.332 227.217  1.00  0.00    -0.004 C 
ATOM      4  C4  UNK     1      -3.310  38.022 226.961  1.00  0.00     0.005 C 
ATOM      5  C5  UNK     1      -0.419  41.221 226.435  1.00  0.00    -0.004 C 
ATOM      6  C6  UNK     1      -3.219  37.057 228.165  1.00  0.00    -0.022 C 
ATOM      7  C7  UNK     1      -0.835  37.863 228.481  1.00  0.00     0.007 C 
ATOM      8  C8  UNK     1      -2.752  40.331 226.068  1.00  0.00     0.006 C 
ATOM      9  C9  UNK     1      -1.896  41.584 226.245  1.00  0.00     0.006 C 
ATOM     10  C10 UNK     1      -1.752  36.636 228.288  1.00  0.00     0.014 C 
ATOM     11  C11 UNK     1       1.327  39.927 227.705  1.00  0.00     0.012 C 
ATOM     12  C12 UNK     1       0.469  42.478 226.468  1.00  0.00     0.037 C 
ATOM     13  C13 UNK     1      -4.788  38.016 226.575  1.00  0.00     0.033 C 
ATOM     14  C14 UNK     1      -0.568  40.963 228.999  1.00  0.00     0.016 C 
ATOM     15  C15 UNK     1       2.245  41.156 227.713  1.00  0.00     0.032 C 
ATOM     16  C16 UNK     1       1.952  42.120 226.563  1.00  0.00     0.118 C 
ATOM     17  C17 UNK     1      -4.215  36.025 227.703  1.00  0.00    -0.021 C 
ATOM     18  C18 UNK     1      -3.736  37.621 229.508  1.00  0.00     0.020 C 
ATOM     19  C19 UNK     1      -5.109  36.574 226.863  1.00  0.00    -0.029 C 
ENDROOT
BRANCH  16  20
ATOM     20  O1  UNK     1       2.355  41.525 225.330  1.00  0.00    -0.396 OA
ATOM     21  H30 UNK     1       3.153  41.991 225.026  1.00  0.00     0.210 HD
ENDBRANCH  16  20
TORSDOF 1
ENDMDL
MODEL 6
REMARK VINA RESULT:      -6.2      2.314      3.724
REMARK  1 active torsions:
REMARK  status: ('A' for Active; 'I' for Inactive)
REMARK    1  A    between atoms: O1_1  and  C16_17 
ROOT
ATOM      1  C1  UNK     1       0.169  35.338 236.232  1.00  0.00    -0.002 C 
ATOM      2  C2  UNK     1       1.591  36.010 236.171  1.00  0.00    -0.036 C 
ATOM      3  C3  UNK     1       0.014  34.212 235.153  1.00  0.00    -0.004 C 
ATOM      4  C4  UNK     1      -1.377  33.598 235.318  1.00  0.00     0.005 C 
ATOM      5  C5  UNK     1       2.649  34.872 236.339  1.00  0.00    -0.004 C 
ATOM      6  C6  UNK     1      -2.500  34.631 235.073  1.00  0.00    -0.022 C 
ATOM      7  C7  UNK     1      -1.021  36.339 236.228  1.00  0.00     0.007 C 
ATOM      8  C8  UNK     1       1.123  33.160 235.284  1.00  0.00     0.006 C 
ATOM      9  C9  UNK     1       2.517  33.784 235.267  1.00  0.00     0.006 C 
ATOM     10  C10 UNK     1      -2.410  35.663 236.202  1.00  0.00     0.014 C 
ATOM     11  C11 UNK     1       1.778  37.006 237.349  1.00  0.00     0.012 C 
ATOM     12  C12 UNK     1       4.091  35.404 236.425  1.00  0.00     0.037 C 
ATOM     13  C13 UNK     1      -1.799  32.373 234.511  1.00  0.00     0.033 C 
ATOM     14  C14 UNK     1       1.776  36.785 234.841  1.00  0.00     0.016 C 
ATOM     15  C15 UNK     1       3.210  37.538 237.483  1.00  0.00     0.032 C 
ATOM     16  C16 UNK     1       4.251  36.421 237.555  1.00  0.00     0.118 C 
ATOM     17  C17 UNK     1      -3.676  33.689 235.069  1.00  0.00    -0.021 C 
ATOM     18  C18 UNK     1      -2.470  35.330 233.695  1.00  0.00     0.020 C 
ATOM     19  C19 UNK     1      -3.290  32.454 234.709  1.00  0.00    -0.029 C 
ENDROOT
BRANCH  16  20
ATOM     20  O1  UNK     1       4.129  35.737 238.802  1.00  0.00    -0.396 OA
ATOM     21  H30 UNK     1       4.708  36.187 239.441  1.00  0.00     0.210 HD
ENDBRANCH  16  20
TORSDOF 1
ENDMDL
MODEL 7
REMARK VINA RESULT:      -6.2      3.391      6.715
REMARK  1 active torsions:
REMARK  status: ('A' for Active; 'I' for Inactive)
REMARK    1  A    between atoms: O1_1  and  C16_17 
ROOT
ATOM      1  C1  UNK     1      -0.772  36.140 233.571  1.00  0.00    -0.002 C 
ATOM      2  C2  UNK     1      -1.282  35.209 232.408  1.00  0.00    -0.036 C 
ATOM      3  C3  UNK     1       0.669  35.743 234.042  1.00  0.00    -0.004 C 
ATOM      4  C4  UNK     1       1.087  36.723 235.139  1.00  0.00     0.005 C 
ATOM      5  C5  UNK     1      -0.231  35.293 231.254  1.00  0.00    -0.004 C 
ATOM      6  C6  UNK     1       0.158  36.645 236.372  1.00  0.00    -0.022 C 
ATOM      7  C7  UNK     1      -1.767  36.300 234.756  1.00  0.00     0.007 C 
ATOM      8  C8  UNK     1       1.657  35.742 232.869  1.00  0.00     0.006 C 
ATOM      9  C9  UNK     1       1.174  34.876 231.706  1.00  0.00     0.006 C 
ATOM     10  C10 UNK     1      -1.219  37.147 235.925  1.00  0.00     0.014 C 
ATOM     11  C11 UNK     1      -2.638  35.722 231.850  1.00  0.00     0.012 C 
ATOM     12  C12 UNK     1      -0.665  34.524 229.993  1.00  0.00     0.037 C 
ATOM     13  C13 UNK     1       2.499  36.704 235.719  1.00  0.00     0.033 C 
ATOM     14  C14 UNK     1      -1.477  33.756 232.913  1.00  0.00     0.016 C 
ATOM     15  C15 UNK     1      -3.092  34.997 230.576  1.00  0.00     0.032 C 
ATOM     16  C16 UNK     1      -2.025  35.001 229.482  1.00  0.00     0.118 C 
ATOM     17  C17 UNK     1       0.956  37.513 237.310  1.00  0.00    -0.021 C 
ATOM     18  C18 UNK     1       0.041  35.250 237.027  1.00  0.00     0.020 C 
ATOM     19  C19 UNK     1       2.257  37.500 236.974  1.00  0.00    -0.029 C 
ENDROOT
BRANCH  16  20
ATOM     20  O1  UNK     1      -1.878  36.325 228.968  1.00  0.00    -0.396 OA
ATOM     21  H30 UNK     1      -2.712  36.798 229.133  1.00  0.00     0.210 HD
ENDBRANCH  16  20
TORSDOF 1
ENDMDL
MODEL 8
REMARK VINA RESULT:      -6.0      2.321      6.203
REMARK  1 active torsions:
REMARK  status: ('A' for Active; 'I' for Inactive)
REMARK    1  A    between atoms: O1_1  and  C16_17 
ROOT
ATOM      1  C1  UNK     1       1.590  34.378 234.724  1.00  0.00    -0.002 C 
ATOM      2  C2  UNK     1       0.650  33.281 234.100  1.00  0.00    -0.036 C 
ATOM      3  C3  UNK     1       1.670  34.253 236.284  1.00  0.00    -0.004 C 
ATOM      4  C4  UNK     1       2.631  35.330 236.789  1.00  0.00     0.005 C 
ATOM      5  C5  UNK     1       1.193  31.889 234.560  1.00  0.00    -0.004 C 
ATOM      6  C6  UNK     1       2.127  36.755 236.464  1.00  0.00    -0.022 C 
ATOM      7  C7  UNK     1       1.291  35.831 234.255  1.00  0.00     0.007 C 
ATOM      8  C8  UNK     1       2.114  32.847 236.707  1.00  0.00     0.006 C 
ATOM      9  C9  UNK     1       1.244  31.755 236.087  1.00  0.00     0.006 C 
ATOM     10  C10 UNK     1       2.165  36.904 234.940  1.00  0.00     0.014 C 
ATOM     11  C11 UNK     1       0.714  33.323 232.548  1.00  0.00     0.012 C 
ATOM     12  C12 UNK     1       0.439  30.711 233.918  1.00  0.00     0.037 C 
ATOM     13  C13 UNK     1       3.044  35.394 238.257  1.00  0.00     0.033 C 
ATOM     14  C14 UNK     1      -0.821  33.505 234.535  1.00  0.00     0.016 C 
ATOM     15  C15 UNK     1      -0.004  32.148 231.871  1.00  0.00     0.032 C 
ATOM     16  C16 UNK     1       0.465  30.790 232.391  1.00  0.00     0.118 C 
ATOM     17  C17 UNK     1       3.128  37.537 237.276  1.00  0.00    -0.021 C 
ATOM     18  C18 UNK     1       0.724  37.104 237.010  1.00  0.00     0.020 C 
ATOM     19  C19 UNK     1       3.593  36.795 238.295  1.00  0.00    -0.029 C 
ENDROOT
BRANCH  16  20
ATOM     20  O1  UNK     1       1.799  30.547 231.947  1.00  0.00    -0.396 OA
ATOM     21  H30 UNK     1       1.851  30.814 231.012  1.00  0.00     0.210 HD
ENDBRANCH  16  20
TORSDOF 1
ENDMDL
MODEL 9
REMARK VINA RESULT:      -6.0      2.867      4.411
REMARK  1 active torsions:
REMARK  status: ('A' for Active; 'I' for Inactive)
REMARK    1  A    between atoms: O1_1  and  C16_17 
ROOT
ATOM      1  C1  UNK     1       0.290  35.567 231.867  1.00  0.00    -0.002 C 
ATOM      2  C2  UNK     1       0.495  35.413 233.420  1.00  0.00    -0.036 C 
ATOM      3  C3  UNK     1      -1.187  35.254 231.443  1.00  0.00    -0.004 C 
ATOM      4  C4  UNK     1      -1.294  35.468 229.934  1.00  0.00     0.005 C 
ATOM      5  C5  UNK     1      -0.539  36.353 234.119  1.00  0.00    -0.004 C 
ATOM      6  C6  UNK     1      -0.373  34.509 229.145  1.00  0.00    -0.022 C 
ATOM      7  C7  UNK     1       1.334  34.811 230.996  1.00  0.00     0.007 C 
ATOM      8  C8  UNK     1      -2.183  36.127 232.217  1.00  0.00     0.006 C 
ATOM      9  C9  UNK     1      -1.986  36.030 233.729  1.00  0.00     0.006 C 
ATOM     10  C10 UNK     1       1.069  34.902 229.478  1.00  0.00     0.014 C 
ATOM     11  C11 UNK     1       1.917  35.883 233.833  1.00  0.00     0.012 C 
ATOM     12  C12 UNK     1      -0.366  36.400 235.648  1.00  0.00     0.037 C 
ATOM     13  C13 UNK     1      -2.640  35.385 229.218  1.00  0.00     0.033 C 
ATOM     14  C14 UNK     1       0.323  33.934 233.853  1.00  0.00     0.016 C 
ATOM     15  C15 UNK     1       2.119  35.967 235.351  1.00  0.00     0.032 C 
ATOM     16  C16 UNK     1       1.052  36.813 236.044  1.00  0.00     0.118 C 
ATOM     17  C17 UNK     1      -0.883  34.799 227.757  1.00  0.00    -0.021 C 
ATOM     18  C18 UNK     1      -0.601  33.003 229.409  1.00  0.00     0.020 C 
ATOM     19  C19 UNK     1      -2.153  35.235 227.801  1.00  0.00    -0.029 C 
ENDROOT
BRANCH  16  20
ATOM     20  O1  UNK     1       1.236  38.186 235.698  1.00  0.00    -0.396 OA
ATOM     21  H30 UNK     1       2.170  38.406 235.860  1.00  0.00     0.210 HD
ENDBRANCH  16  20
TORSDOF 1
ENDMDL
