MODEL 1
REMARK VINA RESULT:      -4.9      0.000      0.000
REMARK  3 active torsions:
REMARK  status: ('A' for Active; 'I' for Inactive)
REMARK    1  A    between atoms: N1_1  and  C1_2 
REMARK    2  A    between atoms: C1_2  and  C2_3 
REMARK    3  A    between atoms: C2_3  and  C3_4 
ROOT
ATOM      1  C3  UNK     1       1.128  36.641 237.261  1.00  0.00    -0.056 A 
ATOM      2  C5  UNK     1       0.533  37.892 237.248  1.00  0.00     0.007 A 
ATOM      3  C6  UNK     1       0.463  35.523 236.782  1.00  0.00     0.007 A 
ATOM      4  C8  UNK     1      -0.759  38.030 236.741  1.00  0.00     0.001 A 
ATOM      5  C9  UNK     1      -0.829  35.660 236.275  1.00  0.00     0.001 A 
ATOM      6  C10 UNK     1      -1.440  36.914 236.255  1.00  0.00     0.000 A 
ENDROOT
BRANCH   1   7
ATOM      7  C2  UNK     1       2.526  36.492 237.810  1.00  0.00     0.073 C 
BRANCH   7   8
ATOM      8  C1  UNK     1       3.626  36.651 236.745  1.00  0.00     0.220 C 
ATOM      9  C4  UNK     1       4.105  35.310 236.190  1.00  0.00     0.043 C 
BRANCH   8  10
ATOM     10  N1  UNK     1       4.777  37.345 237.333  1.00  0.00     0.083 N 
ATOM     11  C7  UNK     1       4.982  36.922 238.708  1.00  0.00     0.307 C 
ATOM     12  H7  UNK     1       4.601  38.350 237.312  1.00  0.00     0.315 HD
ENDBRANCH   8  10
ENDBRANCH   7   8
ENDBRANCH   1   7
TORSDOF 3
ENDMDL
MODEL 2
REMARK VINA RESULT:      -4.9      9.916     10.617
REMARK  3 active torsions:
REMARK  status: ('A' for Active; 'I' for Inactive)
REMARK    1  A    between atoms: N1_1  and  C1_2 
REMARK    2  A    between atoms: C1_2  and  C2_3 
REMARK    3  A    between atoms: C2_3  and  C3_4 
ROOT
ATOM      1  C3  UNK     1      -0.399  41.256 227.922  1.00  0.00    -0.056 A 
ATOM      2  C5  UNK     1      -1.237  40.309 228.488  1.00  0.00     0.007 A 
ATOM      3  C6  UNK     1      -0.611  41.728 226.636  1.00  0.00     0.007 A 
ATOM      4  C8  UNK     1      -2.316  39.821 227.751  1.00  0.00     0.001 A 
ATOM      5  C9  UNK     1      -1.690  41.241 225.898  1.00  0.00     0.001 A 
ATOM      6  C10 UNK     1      -2.541  40.287 226.456  1.00  0.00     0.000 A 
ENDROOT
BRANCH   1   7
ATOM      7  C2  UNK     1       0.769  41.784 228.720  1.00  0.00     0.073 C 
BRANCH   7   8
ATOM      8  C1  UNK     1       2.026  42.049 227.871  1.00  0.00     0.220 C 
ATOM      9  C4  UNK     1       2.795  40.769 227.545  1.00  0.00     0.043 C 
BRANCH   8  10
ATOM     10  N1  UNK     1       2.922  42.954 228.596  1.00  0.00     0.083 N 
ATOM     11  C7  UNK     1       4.157  42.276 228.953  1.00  0.00     0.307 C 
ATOM     12  H7  UNK     1       2.455  43.270 229.447  1.00  0.00     0.315 HD
ENDBRANCH   8  10
ENDBRANCH   7   8
ENDBRANCH   1   7
TORSDOF 3
ENDMDL
MODEL 3
REMARK VINA RESULT:      -4.9      9.941     10.604
REMARK  3 active torsions:
REMARK  status: ('A' for Active; 'I' for Inactive)
REMARK    1  A    between atoms: N1_1  and  C1_2 
REMARK    2  A    between atoms: C1_2  and  C2_3 
REMARK    3  A    between atoms: C2_3  and  C3_4 
ROOT
ATOM      1  C3  UNK     1      -0.464  41.195 227.884  1.00  0.00    -0.056 A 
ATOM      2  C5  UNK     1      -0.698  41.686 226.610  1.00  0.00     0.007 A 
ATOM      3  C6  UNK     1      -1.290  40.238 228.451  1.00  0.00     0.007 A 
ATOM      4  C8  UNK     1      -1.786  41.205 225.881  1.00  0.00     0.001 A 
ATOM      5  C9  UNK     1      -2.378  39.757 227.722  1.00  0.00     0.001 A 
ATOM      6  C10 UNK     1      -2.626  40.241 226.438  1.00  0.00     0.000 A 
ENDROOT
BRANCH   1   7
ATOM      7  C2  UNK     1       0.714  41.716 228.673  1.00  0.00     0.073 C 
BRANCH   7   8
ATOM      8  C1  UNK     1       1.948  42.023 227.805  1.00  0.00     0.220 C 
ATOM      9  C4  UNK     1       2.765  40.772 227.482  1.00  0.00     0.043 C 
BRANCH   8  10
ATOM     10  N1  UNK     1       2.817  42.971 228.511  1.00  0.00     0.083 N 
ATOM     11  C7  UNK     1       4.036  42.316 228.953  1.00  0.00     0.307 C 
ATOM     12  H7  UNK     1       2.317  43.335 229.322  1.00  0.00     0.315 HD
ENDBRANCH   8  10
ENDBRANCH   7   8
ENDBRANCH   1   7
TORSDOF 3
ENDMDL
MODEL 4
REMARK VINA RESULT:      -4.7     10.952     12.199
REMARK  3 active torsions:
REMARK  status: ('A' for Active; 'I' for Inactive)
REMARK    1  A    between atoms: N1_1  and  C1_2 
REMARK    2  A    between atoms: C1_2  and  C2_3 
REMARK    3  A    between atoms: C2_3  and  C3_4 
ROOT
ATOM      1  C3  UNK     1       1.388  41.048 226.984  1.00  0.00    -0.056 A 
ATOM      2  C5  UNK     1       1.251  42.365 227.393  1.00  0.00     0.007 A 
ATOM      3  C6  UNK     1       2.536  40.324 227.262  1.00  0.00     0.007 A 
ATOM      4  C8  UNK     1       2.288  42.974 228.100  1.00  0.00     0.001 A 
ATOM      5  C9  UNK     1       3.573  40.931 227.969  1.00  0.00     0.001 A 
ATOM      6  C10 UNK     1       3.449  42.257 228.387  1.00  0.00     0.000 A 
ENDROOT
BRANCH   1   7
ATOM      7  C2  UNK     1       0.264  40.391 226.219  1.00  0.00     0.073 C 
BRANCH   7   8
ATOM      8  C1  UNK     1      -1.041  41.207 226.218  1.00  0.00     0.220 C 
ATOM      9  C4  UNK     1      -2.101  40.621 227.149  1.00  0.00     0.043 C 
BRANCH   8  10
ATOM     10  N1  UNK     1      -1.590  41.246 224.859  1.00  0.00     0.083 N 
ATOM     11  C7  UNK     1      -2.946  40.722 224.840  1.00  0.00     0.307 C 
ATOM     12  H7  UNK     1      -1.002  40.678 224.249  1.00  0.00     0.315 HD
ENDBRANCH   8  10
ENDBRANCH   7   8
ENDBRANCH   1   7
TORSDOF 3
ENDMDL
MODEL 5
REMARK VINA RESULT:      -4.7      2.195      4.448
REMARK  3 active torsions:
REMARK  status: ('A' for Active; 'I' for Inactive)
REMARK    1  A    between atoms: N1_1  and  C1_2 
REMARK    2  A    between atoms: C1_2  and  C2_3 
REMARK    3  A    between atoms: C2_3  and  C3_4 
ROOT
ATOM      1  C3  UNK     1       2.685  37.016 237.278  1.00  0.00    -0.056 A 
ATOM      2  C5  UNK     1       3.846  37.672 237.653  1.00  0.00     0.007 A 
ATOM      3  C6  UNK     1       2.396  35.742 237.741  1.00  0.00     0.007 A 
ATOM      4  C8  UNK     1       4.742  37.040 238.516  1.00  0.00     0.001 A 
ATOM      5  C9  UNK     1       3.291  35.110 238.605  1.00  0.00     0.001 A 
ATOM      6  C10 UNK     1       4.464  35.758 238.991  1.00  0.00     0.000 A 
ENDROOT
BRANCH   1   7
ATOM      7  C2  UNK     1       1.717  37.701 236.343  1.00  0.00     0.073 C 
BRANCH   7   8
ATOM      8  C1  UNK     1       0.774  36.728 235.612  1.00  0.00     0.220 C 
ATOM      9  C4  UNK     1       1.256  36.392 234.201  1.00  0.00     0.043 C 
BRANCH   8  10
ATOM     10  N1  UNK     1      -0.561  37.325 235.514  1.00  0.00     0.083 N 
ATOM     11  C7  UNK     1      -0.876  38.079 236.716  1.00  0.00     0.307 C 
ATOM     12  H7  UNK     1      -1.248  36.579 235.395  1.00  0.00     0.315 HD
ENDBRANCH   8  10
ENDBRANCH   7   8
ENDBRANCH   1   7
TORSDOF 3
ENDMDL
MODEL 6
REMARK VINA RESULT:      -4.5      9.513     10.756
REMARK  3 active torsions:
REMARK  status: ('A' for Active; 'I' for Inactive)
REMARK    1  A    between atoms: N1_1  and  C1_2 
REMARK    2  A    between atoms: C1_2  and  C2_3 
REMARK    3  A    between atoms: C2_3  and  C3_4 
ROOT
ATOM      1  C3  UNK     1       0.926  41.185 228.340  1.00  0.00    -0.056 A 
ATOM      2  C5  UNK     1       1.742  42.025 229.080  1.00  0.00     0.007 A 
ATOM      3  C6  UNK     1       1.455  40.296 227.418  1.00  0.00     0.007 A 
ATOM      4  C8  UNK     1       3.124  41.975 228.896  1.00  0.00     0.001 A 
ATOM      5  C9  UNK     1       2.837  40.245 227.233  1.00  0.00     0.001 A 
ATOM      6  C10 UNK     1       3.671  41.085 227.971  1.00  0.00     0.000 A 
ENDROOT
BRANCH   1   7
ATOM      7  C2  UNK     1      -0.569  41.240 228.540  1.00  0.00     0.073 C 
BRANCH   7   8
ATOM      8  C1  UNK     1      -1.332  40.127 227.799  1.00  0.00     0.220 C 
ATOM      9  C4  UNK     1      -2.268  40.674 226.722  1.00  0.00     0.043 C 
BRANCH   8  10
ATOM     10  N1  UNK     1      -2.131  39.360 228.759  1.00  0.00     0.083 N 
ATOM     11  C7  UNK     1      -1.484  38.097 229.071  1.00  0.00     0.307 C 
ATOM     12  H7  UNK     1      -3.049  39.176 228.352  1.00  0.00     0.315 HD
ENDBRANCH   8  10
ENDBRANCH   7   8
ENDBRANCH   1   7
TORSDOF 3
ENDMDL
MODEL 7
REMARK VINA RESULT:      -4.5      2.023      4.759
REMARK  3 active torsions:
REMARK  status: ('A' for Active; 'I' for Inactive)
REMARK    1  A    between atoms: N1_1  and  C1_2 
REMARK    2  A    between atoms: C1_2  and  C2_3 
REMARK    3  A    between atoms: C2_3  and  C3_4 
ROOT
ATOM      1  C3  UNK     1       2.673  36.099 237.693  1.00  0.00    -0.056 A 
ATOM      2  C5  UNK     1       3.028  35.034 238.507  1.00  0.00     0.007 A 
ATOM      3  C6  UNK     1       3.428  37.260 237.658  1.00  0.00     0.007 A 
ATOM      4  C8  UNK     1       4.168  35.132 239.305  1.00  0.00     0.001 A 
ATOM      5  C9  UNK     1       4.568  37.359 238.456  1.00  0.00     0.001 A 
ATOM      6  C10 UNK     1       4.937  36.295 239.279  1.00  0.00     0.000 A 
ENDROOT
BRANCH   1   7
ATOM      7  C2  UNK     1       1.439  35.991 236.830  1.00  0.00     0.073 C 
BRANCH   7   8
ATOM      8  C1  UNK     1       1.033  37.321 236.168  1.00  0.00     0.220 C 
ATOM      9  C4  UNK     1      -0.160  37.980 236.859  1.00  0.00     0.043 C 
BRANCH   8  10
ATOM     10  N1  UNK     1       0.680  37.079 234.766  1.00  0.00     0.083 N 
ATOM     11  C7  UNK     1       1.693  36.267 234.115  1.00  0.00     0.307 C 
ATOM     12  H7  UNK     1       0.608  37.976 234.285  1.00  0.00     0.315 HD
ENDBRANCH   8  10
ENDBRANCH   7   8
ENDBRANCH   1   7
TORSDOF 3
ENDMDL
MODEL 8
REMARK VINA RESULT:      -4.5      1.378      1.825
REMARK  3 active torsions:
REMARK  status: ('A' for Active; 'I' for Inactive)
REMARK    1  A    between atoms: N1_1  and  C1_2 
REMARK    2  A    between atoms: C1_2  and  C2_3 
REMARK    3  A    between atoms: C2_3  and  C3_4 
ROOT
ATOM      1  C3  UNK     1       1.364  37.305 236.413  1.00  0.00    -0.056 A 
ATOM      2  C5  UNK     1       0.373  37.962 237.123  1.00  0.00     0.007 A 
ATOM      3  C6  UNK     1       1.056  36.471 235.349  1.00  0.00     0.007 A 
ATOM      4  C8  UNK     1      -0.962  37.784 236.760  1.00  0.00     0.001 A 
ATOM      5  C9  UNK     1      -0.279  36.293 234.985  1.00  0.00     0.001 A 
ATOM      6  C10 UNK     1      -1.287  36.948 235.692  1.00  0.00     0.000 A 
ENDROOT
BRANCH   1   7
ATOM      7  C2  UNK     1       2.809  37.498 236.807  1.00  0.00     0.073 C 
BRANCH   7   8
ATOM      8  C1  UNK     1       3.130  37.007 238.230  1.00  0.00     0.220 C 
ATOM      9  C4  UNK     1       4.612  37.146 238.578  1.00  0.00     0.043 C 
BRANCH   8  10
ATOM     10  N1  UNK     1       2.757  35.595 238.354  1.00  0.00     0.083 N 
ATOM     11  C7  UNK     1       3.780  34.742 237.772  1.00  0.00     0.307 C 
ATOM     12  H7  UNK     1       1.874  35.442 237.865  1.00  0.00     0.315 HD
ENDBRANCH   8  10
ENDBRANCH   7   8
ENDBRANCH   1   7
TORSDOF 3
ENDMDL
MODEL 9
REMARK VINA RESULT:      -4.4     11.229     12.154
REMARK  3 active torsions:
REMARK  status: ('A' for Active; 'I' for Inactive)
REMARK    1  A    between atoms: N1_1  and  C1_2 
REMARK    2  A    between atoms: C1_2  and  C2_3 
REMARK    3  A    between atoms: C2_3  and  C3_4 
ROOT
ATOM      1  C3  UNK     1      -1.837  40.613 225.943  1.00  0.00    -0.056 A 
ATOM      2  C5  UNK     1      -2.174  40.864 224.623  1.00  0.00     0.007 A 
ATOM      3  C6  UNK     1      -2.624  39.802 226.745  1.00  0.00     0.007 A 
ATOM      4  C8  UNK     1      -3.327  40.289 224.089  1.00  0.00     0.001 A 
ATOM      5  C9  UNK     1      -3.777  39.225 226.212  1.00  0.00     0.001 A 
ATOM      6  C10 UNK     1      -4.129  39.470 224.885  1.00  0.00     0.000 A 
ENDROOT
BRANCH   1   7
ATOM      7  C2  UNK     1      -0.588  41.236 226.520  1.00  0.00     0.073 C 
BRANCH   7   8
ATOM      8  C1  UNK     1       0.676  40.381 226.320  1.00  0.00     0.220 C 
ATOM      9  C4  UNK     1       1.050  39.585 227.570  1.00  0.00     0.043 C 
BRANCH   8  10
ATOM     10  N1  UNK     1       1.803  41.252 225.972  1.00  0.00     0.083 N 
ATOM     11  C7  UNK     1       1.758  42.482 226.744  1.00  0.00     0.307 C 
ATOM     12  H7  UNK     1       1.752  41.476 224.978  1.00  0.00     0.315 HD
ENDBRANCH   8  10
ENDBRANCH   7   8
ENDBRANCH   1   7
TORSDOF 3
ENDMDL
