MODEL 1
REMARK VINA RESULT:      -5.9      0.000      0.000
REMARK  12 active torsions:
REMARK  status: ('A' for Active; 'I' for Inactive)
REMARK    1  A    between atoms: N1_3  and  C1_5 
REMARK    2  A    between atoms: N1_3  and  C2_6 
REMARK       I    between atoms: N1_3  and  C8_12 
REMARK    3  A    between atoms: C1_5  and  C3_7 
REMARK    4  A    between atoms: C2_6  and  C4_8 
REMARK    5  A    between atoms: C3_7  and  C5_9 
REMARK    6  A    between atoms: C4_8  and  C6_10 
REMARK    7  A    between atoms: C5_9  and  C10_14 
REMARK    8  A    between atoms: C6_10  and  C11_15 
REMARK    9  A    between atoms: C7_11  and  C8_12 
REMARK   10  A    between atoms: C7_11  and  C9_13 
REMARK   11  A    between atoms: C10_14  and  C15_19 
REMARK   12  A    between atoms: C11_15  and  C16_20 
ROOT
ATOM      1  F1  UNK     1       3.716  37.755 238.824  1.00  0.00    -0.206 F 
ATOM      2  N2  UNK     1       1.605  35.755 233.125  1.00  0.00    -0.354 N 
ATOM      3  C9  UNK     1       1.527  33.768 234.111  1.00  0.00    -0.009 A 
ATOM      4  C12 UNK     1       1.091  33.615 232.766  1.00  0.00    -0.000 A 
ATOM      5  C13 UNK     1       1.837  35.094 234.303  1.00  0.00     0.050 A 
ATOM      6  C14 UNK     1       1.150  34.876 232.169  1.00  0.00     0.043 A 
ATOM      7  C17 UNK     1       2.324  35.784 235.474  1.00  0.00    -0.009 A 
ATOM      8  C18 UNK     1       0.651  32.520 231.994  1.00  0.00     0.014 A 
ATOM      9  C19 UNK     1       0.789  35.099 230.836  1.00  0.00     0.030 A 
ATOM     10  C22 UNK     1       0.287  32.728 230.659  1.00  0.00     0.001 A 
ATOM     11  C23 UNK     1       0.355  33.999 230.090  1.00  0.00     0.002 A 
ATOM     12  C24 UNK     1       3.539  35.410 236.049  1.00  0.00     0.017 A 
ATOM     13  C25 UNK     1       1.579  36.823 236.033  1.00  0.00     0.017 A 
ATOM     14  C26 UNK     1       4.009  36.076 237.181  1.00  0.00     0.043 A 
ATOM     15  C27 UNK     1       2.050  37.489 237.164  1.00  0.00     0.043 A 
ATOM     16  C28 UNK     1       3.265  37.115 237.738  1.00  0.00     0.116 A 
ATOM     17  H19 UNK     1       1.749  36.744 232.974  1.00  0.00     0.166 HD
ENDROOT
BRANCH   3  18
ATOM     18  C7  UNK     1       1.630  32.674 235.133  1.00  0.00     0.144 C 
BRANCH  18  19
ATOM     19  C8  UNK     1       0.278  32.305 235.732  1.00  0.00     0.224 C 
ATOM     20  O1  UNK     1      -0.553  31.672 235.075  1.00  0.00    -0.273 OA
ATOM     21  N1  UNK     1       0.070  32.738 237.062  1.00  0.00    -0.352 N 
BRANCH  21  22
ATOM     22  C1  UNK     1       1.089  33.489 237.805  1.00  0.00     0.125 C 
BRANCH  22  23
ATOM     23  C3  UNK     1       1.942  32.593 238.698  1.00  0.00     0.020 C 
BRANCH  23  24
ATOM     24  C5  UNK     1       3.103  33.350 239.352  1.00  0.00     0.002 C 
BRANCH  24  25
ATOM     25  C10 UNK     1       4.452  32.837 238.842  1.00  0.00    -0.000 C 
BRANCH  25  26
ATOM     26  C15 UNK     1       4.362  32.144 237.481  1.00  0.00    -0.005 C 
ATOM     27  C20 UNK     1       5.370  31.018 237.304  1.00  0.00     0.005 C 
ENDBRANCH  25  26
ENDBRANCH  24  25
ENDBRANCH  23  24
ENDBRANCH  22  23
ENDBRANCH  21  22
BRANCH  21  28
ATOM     28  C2  UNK     1      -1.153  32.469 237.768  1.00  0.00     0.125 C 
BRANCH  28  29
ATOM     29  C4  UNK     1      -1.995  33.723 237.982  1.00  0.00     0.020 C 
BRANCH  29  30
ATOM     30  C6  UNK     1      -2.579  34.269 236.674  1.00  0.00     0.002 C 
BRANCH  30  31
ATOM     31  C11 UNK     1      -1.974  35.631 236.326  1.00  0.00    -0.000 C 
BRANCH  31  32
ATOM     32  C16 UNK     1      -1.738  35.825 234.827  1.00  0.00    -0.005 C 
ATOM     33  C21 UNK     1      -2.183  34.640 233.982  1.00  0.00     0.005 C 
ENDBRANCH  31  32
ENDBRANCH  30  31
ENDBRANCH  29  30
ENDBRANCH  28  29
ENDBRANCH  21  28
ENDBRANCH  18  19
ENDBRANCH   3  18
TORSDOF 12
ENDMDL
MODEL 2
REMARK VINA RESULT:      -5.8      2.062      5.697
REMARK  12 active torsions:
REMARK  status: ('A' for Active; 'I' for Inactive)
REMARK    1  A    between atoms: N1_3  and  C1_5 
REMARK    2  A    between atoms: N1_3  and  C2_6 
REMARK       I    between atoms: N1_3  and  C8_12 
REMARK    3  A    between atoms: C1_5  and  C3_7 
REMARK    4  A    between atoms: C2_6  and  C4_8 
REMARK    5  A    between atoms: C3_7  and  C5_9 
REMARK    6  A    between atoms: C4_8  and  C6_10 
REMARK    7  A    between atoms: C5_9  and  C10_14 
REMARK    8  A    between atoms: C6_10  and  C11_15 
REMARK    9  A    between atoms: C7_11  and  C8_12 
REMARK   10  A    between atoms: C7_11  and  C9_13 
REMARK   11  A    between atoms: C10_14  and  C15_19 
REMARK   12  A    between atoms: C11_15  and  C16_20 
ROOT
ATOM      1  F1  UNK     1      -1.386  38.825 237.078  1.00  0.00    -0.206 F 
ATOM      2  N2  UNK     1       2.840  34.036 237.453  1.00  0.00    -0.354 N 
ATOM      3  C9  UNK     1       2.181  33.602 235.378  1.00  0.00    -0.009 A 
ATOM      4  C12 UNK     1       3.168  32.643 235.742  1.00  0.00    -0.000 A 
ATOM      5  C13 UNK     1       2.001  34.444 236.450  1.00  0.00     0.050 A 
ATOM      6  C14 UNK     1       3.564  32.938 237.048  1.00  0.00     0.043 A 
ATOM      7  C17 UNK     1       1.123  35.580 236.613  1.00  0.00    -0.009 A 
ATOM      8  C18 UNK     1       3.763  31.549 235.083  1.00  0.00     0.014 A 
ATOM      9  C19 UNK     1       4.529  32.191 237.732  1.00  0.00     0.030 A 
ATOM     10  C22 UNK     1       4.731  30.792 235.755  1.00  0.00     0.001 A 
ATOM     11  C23 UNK     1       5.107  31.110 237.058  1.00  0.00     0.002 A 
ATOM     12  C24 UNK     1      -0.258  35.416 236.500  1.00  0.00     0.017 A 
ATOM     13  C25 UNK     1       1.656  36.841 236.882  1.00  0.00     0.017 A 
ATOM     14  C26 UNK     1      -1.105  36.512 236.657  1.00  0.00     0.043 A 
ATOM     15  C27 UNK     1       0.808  37.937 237.040  1.00  0.00     0.043 A 
ATOM     16  C28 UNK     1      -0.572  37.772 236.927  1.00  0.00     0.116 A 
ATOM     17  H19 UNK     1       2.918  34.472 238.361  1.00  0.00     0.166 HD
ENDROOT
BRANCH   3  18
ATOM     18  C7  UNK     1       1.469  33.675 234.059  1.00  0.00     0.144 C 
BRANCH  18  19
ATOM     19  C8  UNK     1       0.214  32.811 234.024  1.00  0.00     0.224 C 
ATOM     20  O1  UNK     1      -0.172  32.216 235.034  1.00  0.00    -0.273 OA
ATOM     21  N1  UNK     1      -0.444  32.755 232.775  1.00  0.00    -0.352 N 
BRANCH  21  22
ATOM     22  C1  UNK     1       0.053  33.482 231.599  1.00  0.00     0.125 C 
BRANCH  22  23
ATOM     23  C3  UNK     1       0.212  32.582 230.378  1.00  0.00     0.020 C 
BRANCH  23  24
ATOM     24  C5  UNK     1       0.816  33.321 229.179  1.00  0.00     0.002 C 
BRANCH  24  25
ATOM     25  C10 UNK     1       1.343  34.699 229.588  1.00  0.00    -0.000 C 
BRANCH  25  26
ATOM     26  C15 UNK     1       2.029  35.449 228.445  1.00  0.00    -0.005 C 
ATOM     27  C20 UNK     1       2.437  34.551 227.287  1.00  0.00     0.005 C 
ENDBRANCH  25  26
ENDBRANCH  24  25
ENDBRANCH  23  24
ENDBRANCH  22  23
ENDBRANCH  21  22
BRANCH  21  28
ATOM     28  C2  UNK     1      -1.641  31.985 232.578  1.00  0.00     0.125 C 
BRANCH  28  29
ATOM     29  C4  UNK     1      -2.882  32.858 232.421  1.00  0.00     0.020 C 
BRANCH  29  30
ATOM     30  C6  UNK     1      -3.532  33.203 233.766  1.00  0.00     0.002 C 
BRANCH  30  31
ATOM     31  C11 UNK     1      -3.156  34.617 234.214  1.00  0.00    -0.000 C 
BRANCH  31  32
ATOM     32  C16 UNK     1      -2.978  35.595 233.050  1.00  0.00    -0.005 C 
ATOM     33  C21 UNK     1      -1.689  36.399 233.123  1.00  0.00     0.005 C 
ENDBRANCH  31  32
ENDBRANCH  30  31
ENDBRANCH  29  30
ENDBRANCH  28  29
ENDBRANCH  21  28
ENDBRANCH  18  19
ENDBRANCH   3  18
TORSDOF 12
ENDMDL
MODEL 3
REMARK VINA RESULT:      -5.7      2.000      5.590
REMARK  12 active torsions:
REMARK  status: ('A' for Active; 'I' for Inactive)
REMARK    1  A    between atoms: N1_3  and  C1_5 
REMARK    2  A    between atoms: N1_3  and  C2_6 
REMARK       I    between atoms: N1_3  and  C8_12 
REMARK    3  A    between atoms: C1_5  and  C3_7 
REMARK    4  A    between atoms: C2_6  and  C4_8 
REMARK    5  A    between atoms: C3_7  and  C5_9 
REMARK    6  A    between atoms: C4_8  and  C6_10 
REMARK    7  A    between atoms: C5_9  and  C10_14 
REMARK    8  A    between atoms: C6_10  and  C11_15 
REMARK    9  A    between atoms: C7_11  and  C8_12 
REMARK   10  A    between atoms: C7_11  and  C9_13 
REMARK   11  A    between atoms: C10_14  and  C15_19 
REMARK   12  A    between atoms: C11_15  and  C16_20 
ROOT
ATOM      1  F1  UNK     1      -1.356  38.824 236.992  1.00  0.00    -0.206 F 
ATOM      2  N2  UNK     1       2.897  34.070 237.487  1.00  0.00    -0.354 N 
ATOM      3  C9  UNK     1       2.239  33.577 235.425  1.00  0.00    -0.009 A 
ATOM      4  C12 UNK     1       3.230  32.634 235.813  1.00  0.00    -0.000 A 
ATOM      5  C13 UNK     1       2.054  34.447 236.475  1.00  0.00     0.050 A 
ATOM      6  C14 UNK     1       3.627  32.965 237.111  1.00  0.00     0.043 A 
ATOM      7  C17 UNK     1       1.171  35.581 236.609  1.00  0.00    -0.009 A 
ATOM      8  C18 UNK     1       3.832  31.526 235.183  1.00  0.00     0.014 A 
ATOM      9  C19 UNK     1       4.597  32.242 237.813  1.00  0.00     0.030 A 
ATOM     10  C22 UNK     1       4.804  30.793 235.873  1.00  0.00     0.001 A 
ATOM     11  C23 UNK     1       5.180  31.147 237.168  1.00  0.00     0.002 A 
ATOM     12  C24 UNK     1      -0.210  35.407 236.502  1.00  0.00     0.017 A 
ATOM     13  C25 UNK     1       1.697  36.852 236.844  1.00  0.00     0.017 A 
ATOM     14  C26 UNK     1      -1.063  36.502 236.632  1.00  0.00     0.043 A 
ATOM     15  C27 UNK     1       0.843  37.947 236.974  1.00  0.00     0.043 A 
ATOM     16  C28 UNK     1      -0.537  37.772 236.868  1.00  0.00     0.116 A 
ATOM     17  H19 UNK     1       2.973  34.530 238.384  1.00  0.00     0.166 HD
ENDROOT
BRANCH   3  18
ATOM     18  C7  UNK     1       1.524  33.612 234.106  1.00  0.00     0.144 C 
BRANCH  18  19
ATOM     19  C8  UNK     1       0.284  32.726 234.090  1.00  0.00     0.224 C 
ATOM     20  O1  UNK     1       0.244  31.683 234.749  1.00  0.00    -0.273 OA
ATOM     21  N1  UNK     1      -0.778  33.191 233.281  1.00  0.00    -0.352 N 
BRANCH  21  22
ATOM     22  C1  UNK     1      -0.684  34.440 232.515  1.00  0.00     0.125 C 
BRANCH  22  23
ATOM     23  C3  UNK     1      -0.653  34.203 231.008  1.00  0.00     0.020 C 
BRANCH  23  24
ATOM     24  C5  UNK     1       0.730  33.770 230.510  1.00  0.00     0.002 C 
BRANCH  24  25
ATOM     25  C10 UNK     1       1.572  34.980 230.099  1.00  0.00    -0.000 C 
BRANCH  25  26
ATOM     26  C15 UNK     1       1.406  35.363 228.627  1.00  0.00    -0.005 C 
ATOM     27  C20 UNK     1       2.259  34.531 227.683  1.00  0.00     0.005 C 
ENDBRANCH  25  26
ENDBRANCH  24  25
ENDBRANCH  23  24
ENDBRANCH  22  23
ENDBRANCH  21  22
BRANCH  21  28
ATOM     28  C2  UNK     1      -2.015  32.470 233.160  1.00  0.00     0.125 C 
BRANCH  28  29
ATOM     29  C4  UNK     1      -3.210  33.263 233.682  1.00  0.00     0.020 C 
BRANCH  29  30
ATOM     30  C6  UNK     1      -3.067  33.634 235.162  1.00  0.00     0.002 C 
BRANCH  30  31
ATOM     31  C11 UNK     1      -3.185  32.397 236.055  1.00  0.00    -0.000 C 
BRANCH  31  32
ATOM     32  C16 UNK     1      -2.180  32.384 237.209  1.00  0.00    -0.005 C 
ATOM     33  C21 UNK     1      -2.612  33.223 238.402  1.00  0.00     0.005 C 
ENDBRANCH  31  32
ENDBRANCH  30  31
ENDBRANCH  29  30
ENDBRANCH  28  29
ENDBRANCH  21  28
ENDBRANCH  18  19
ENDBRANCH   3  18
TORSDOF 12
ENDMDL
MODEL 4
REMARK VINA RESULT:      -5.5      5.850      8.606
REMARK  12 active torsions:
REMARK  status: ('A' for Active; 'I' for Inactive)
REMARK    1  A    between atoms: N1_3  and  C1_5 
REMARK    2  A    between atoms: N1_3  and  C2_6 
REMARK       I    between atoms: N1_3  and  C8_12 
REMARK    3  A    between atoms: C1_5  and  C3_7 
REMARK    4  A    between atoms: C2_6  and  C4_8 
REMARK    5  A    between atoms: C3_7  and  C5_9 
REMARK    6  A    between atoms: C4_8  and  C6_10 
REMARK    7  A    between atoms: C5_9  and  C10_14 
REMARK    8  A    between atoms: C6_10  and  C11_15 
REMARK    9  A    between atoms: C7_11  and  C8_12 
REMARK   10  A    between atoms: C7_11  and  C9_13 
REMARK   11  A    between atoms: C10_14  and  C15_19 
REMARK   12  A    between atoms: C11_15  and  C16_20 
ROOT
ATOM      1  F1  UNK     1       4.167  42.431 228.335  1.00  0.00    -0.206 F 
ATOM      2  N2  UNK     1      -1.589  40.633 226.197  1.00  0.00    -0.354 N 
ATOM      3  C9  UNK     1      -1.583  39.312 227.982  1.00  0.00    -0.009 A 
ATOM      4  C12 UNK     1      -2.805  39.110 227.283  1.00  0.00    -0.000 A 
ATOM      5  C13 UNK     1      -0.856  40.253 227.290  1.00  0.00     0.050 A 
ATOM      6  C14 UNK     1      -2.784  39.950 226.167  1.00  0.00     0.043 A 
ATOM      7  C17 UNK     1       0.446  40.818 227.561  1.00  0.00    -0.009 A 
ATOM      8  C18 UNK     1      -3.932  38.289 227.492  1.00  0.00     0.014 A 
ATOM      9  C19 UNK     1      -3.836  40.011 225.247  1.00  0.00     0.030 A 
ATOM     10  C22 UNK     1      -4.992  38.340 226.580  1.00  0.00     0.001 A 
ATOM     11  C23 UNK     1      -4.944  39.189 225.475  1.00  0.00     0.002 A 
ATOM     12  C24 UNK     1       1.566  39.990 227.624  1.00  0.00     0.017 A 
ATOM     13  C25 UNK     1       0.583  42.192 227.760  1.00  0.00     0.017 A 
ATOM     14  C26 UNK     1       2.823  40.534 227.885  1.00  0.00     0.043 A 
ATOM     15  C27 UNK     1       1.840  42.737 228.021  1.00  0.00     0.043 A 
ATOM     16  C28 UNK     1       2.960  41.908 228.083  1.00  0.00     0.116 A 
ATOM     17  H19 UNK     1      -1.299  41.313 225.508  1.00  0.00     0.166 HD
ENDROOT
BRANCH   3  18
ATOM     18  C7  UNK     1      -1.166  38.620 229.246  1.00  0.00     0.144 C 
BRANCH  18  19
ATOM     19  C8  UNK     1      -0.807  37.156 229.019  1.00  0.00     0.224 C 
ATOM     20  O1  UNK     1      -0.328  36.782 227.945  1.00  0.00    -0.273 OA
ATOM     21  N1  UNK     1      -1.062  36.298 230.112  1.00  0.00    -0.352 N 
BRANCH  21  22
ATOM     22  C1  UNK     1      -1.632  36.789 231.373  1.00  0.00     0.125 C 
BRANCH  22  23
ATOM     23  C3  UNK     1      -2.577  35.783 232.021  1.00  0.00     0.020 C 
BRANCH  23  24
ATOM     24  C5  UNK     1      -2.468  35.774 233.550  1.00  0.00     0.002 C 
BRANCH  24  25
ATOM     25  C10 UNK     1      -2.490  34.345 234.097  1.00  0.00    -0.000 C 
BRANCH  25  26
ATOM     26  C15 UNK     1      -2.463  34.281 235.626  1.00  0.00    -0.005 C 
ATOM     27  C20 UNK     1      -1.783  35.479 236.272  1.00  0.00     0.005 C 
ENDBRANCH  25  26
ENDBRANCH  24  25
ENDBRANCH  23  24
ENDBRANCH  22  23
ENDBRANCH  21  22
BRANCH  21  28
ATOM     28  C2  UNK     1      -0.778  34.890 230.058  1.00  0.00     0.125 C 
BRANCH  28  29
ATOM     29  C4  UNK     1       0.712  34.586 230.189  1.00  0.00     0.020 C 
BRANCH  29  30
ATOM     30  C6  UNK     1       1.298  35.084 231.515  1.00  0.00     0.002 C 
BRANCH  30  31
ATOM     31  C11 UNK     1       0.985  34.112 232.656  1.00  0.00    -0.000 C 
BRANCH  31  32
ATOM     32  C16 UNK     1       1.185  34.723 234.045  1.00  0.00    -0.005 C 
ATOM     33  C21 UNK     1       1.279  36.241 234.034  1.00  0.00     0.005 C 
ENDBRANCH  31  32
ENDBRANCH  30  31
ENDBRANCH  29  30
ENDBRANCH  28  29
ENDBRANCH  21  28
ENDBRANCH  18  19
ENDBRANCH   3  18
TORSDOF 12
ENDMDL
MODEL 5
REMARK VINA RESULT:      -5.3      3.549      7.807
REMARK  12 active torsions:
REMARK  status: ('A' for Active; 'I' for Inactive)
REMARK    1  A    between atoms: N1_3  and  C1_5 
REMARK    2  A    between atoms: N1_3  and  C2_6 
REMARK       I    between atoms: N1_3  and  C8_12 
REMARK    3  A    between atoms: C1_5  and  C3_7 
REMARK    4  A    between atoms: C2_6  and  C4_8 
REMARK    5  A    between atoms: C3_7  and  C5_9 
REMARK    6  A    between atoms: C4_8  and  C6_10 
REMARK    7  A    between atoms: C5_9  and  C10_14 
REMARK    8  A    between atoms: C6_10  and  C11_15 
REMARK    9  A    between atoms: C7_11  and  C8_12 
REMARK   10  A    between atoms: C7_11  and  C9_13 
REMARK   11  A    between atoms: C10_14  and  C15_19 
REMARK   12  A    between atoms: C11_15  and  C16_20 
ROOT
ATOM      1  F1  UNK     1       0.949  30.407 230.167  1.00  0.00    -0.206 F 
ATOM      2  N2  UNK     1       1.906  34.831 234.689  1.00  0.00    -0.354 N 
ATOM      3  C9  UNK     1      -0.275  35.184 234.478  1.00  0.00    -0.009 A 
ATOM      4  C12 UNK     1       0.227  36.076 235.466  1.00  0.00    -0.000 A 
ATOM      5  C13 UNK     1       0.780  34.432 234.018  1.00  0.00     0.050 A 
ATOM      6  C14 UNK     1       1.598  35.834 235.580  1.00  0.00     0.043 A 
ATOM      7  C17 UNK     1       0.824  33.389 233.020  1.00  0.00    -0.009 A 
ATOM      8  C18 UNK     1      -0.356  37.071 236.278  1.00  0.00     0.014 A 
ATOM      9  C19 UNK     1       2.419  36.538 236.467  1.00  0.00     0.030 A 
ATOM     10  C22 UNK     1       0.454  37.783 237.170  1.00  0.00     0.001 A 
ATOM     11  C23 UNK     1       1.819  37.519 237.262  1.00  0.00     0.002 A 
ATOM     12  C24 UNK     1       0.439  33.662 231.708  1.00  0.00     0.017 A 
ATOM     13  C25 UNK     1       1.250  32.107 233.369  1.00  0.00     0.017 A 
ATOM     14  C26 UNK     1       0.482  32.655 230.744  1.00  0.00     0.043 A 
ATOM     15  C27 UNK     1       1.293  31.100 232.404  1.00  0.00     0.043 A 
ATOM     16  C28 UNK     1       0.909  31.375 231.092  1.00  0.00     0.116 A 
ATOM     17  H19 UNK     1       2.832  34.449 234.553  1.00  0.00     0.166 HD
ENDROOT
BRANCH   3  18
ATOM     18  C7  UNK     1      -1.701  35.087 234.022  1.00  0.00     0.144 C 
BRANCH  18  19
ATOM     19  C8  UNK     1      -1.975  35.922 232.777  1.00  0.00     0.224 C 
ATOM     20  O1  UNK     1      -1.576  37.087 232.696  1.00  0.00    -0.273 OA
ATOM     21  N1  UNK     1      -2.702  35.264 231.759  1.00  0.00    -0.352 N 
BRANCH  21  22
ATOM     22  C1  UNK     1      -3.156  33.875 231.899  1.00  0.00     0.125 C 
BRANCH  22  23
ATOM     23  C3  UNK     1      -4.674  33.742 231.810  1.00  0.00     0.020 C 
BRANCH  23  24
ATOM     24  C5  UNK     1      -5.388  34.332 233.031  1.00  0.00     0.002 C 
BRANCH  24  25
ATOM     25  C10 UNK     1      -6.091  33.239 233.840  1.00  0.00    -0.000 C 
BRANCH  25  26
ATOM     26  C15 UNK     1      -7.604  33.442 233.946  1.00  0.00    -0.005 C 
ATOM     27  C20 UNK     1      -8.072  34.798 233.437  1.00  0.00     0.005 C 
ENDBRANCH  25  26
ENDBRANCH  24  25
ENDBRANCH  23  24
ENDBRANCH  22  23
ENDBRANCH  21  22
BRANCH  21  28
ATOM     28  C2  UNK     1      -3.040  35.914 230.522  1.00  0.00     0.125 C 
BRANCH  28  29
ATOM     29  C4  UNK     1      -2.310  35.312 229.324  1.00  0.00     0.020 C 
BRANCH  29  30
ATOM     30  C6  UNK     1      -1.141  36.181 228.851  1.00  0.00     0.002 C 
BRANCH  30  31
ATOM     31  C11 UNK     1      -0.129  35.357 228.051  1.00  0.00    -0.000 C 
BRANCH  31  32
ATOM     32  C16 UNK     1       1.315  35.551 228.517  1.00  0.00    -0.005 C 
ATOM     33  C21 UNK     1       2.331  34.778 227.690  1.00  0.00     0.005 C 
ENDBRANCH  31  32
ENDBRANCH  30  31
ENDBRANCH  29  30
ENDBRANCH  28  29
ENDBRANCH  21  28
ENDBRANCH  18  19
ENDBRANCH   3  18
TORSDOF 12
ENDMDL
MODEL 6
REMARK VINA RESULT:      -5.3      2.823      6.914
REMARK  12 active torsions:
REMARK  status: ('A' for Active; 'I' for Inactive)
REMARK    1  A    between atoms: N1_3  and  C1_5 
REMARK    2  A    between atoms: N1_3  and  C2_6 
REMARK       I    between atoms: N1_3  and  C8_12 
REMARK    3  A    between atoms: C1_5  and  C3_7 
REMARK    4  A    between atoms: C2_6  and  C4_8 
REMARK    5  A    between atoms: C3_7  and  C5_9 
REMARK    6  A    between atoms: C4_8  and  C6_10 
REMARK    7  A    between atoms: C5_9  and  C10_14 
REMARK    8  A    between atoms: C6_10  and  C11_15 
REMARK    9  A    between atoms: C7_11  and  C8_12 
REMARK   10  A    between atoms: C7_11  and  C9_13 
REMARK   11  A    between atoms: C10_14  and  C15_19 
REMARK   12  A    between atoms: C11_15  and  C16_20 
ROOT
ATOM      1  F1  UNK     1       0.058  31.607 229.229  1.00  0.00    -0.206 F 
ATOM      2  N2  UNK     1       2.858  32.592 234.897  1.00  0.00    -0.354 N 
ATOM      3  C9  UNK     1       0.805  33.119 235.558  1.00  0.00    -0.009 A 
ATOM      4  C12 UNK     1       1.681  33.257 236.671  1.00  0.00    -0.000 A 
ATOM      5  C13 UNK     1       1.558  32.709 234.482  1.00  0.00     0.050 A 
ATOM      6  C14 UNK     1       2.963  32.921 236.229  1.00  0.00     0.043 A 
ATOM      7  C17 UNK     1       1.169  32.423 233.121  1.00  0.00    -0.009 A 
ATOM      8  C18 UNK     1       1.506  33.638 238.017  1.00  0.00     0.014 A 
ATOM      9  C19 UNK     1       4.082  32.947 237.068  1.00  0.00     0.030 A 
ATOM     10  C22 UNK     1       2.617  33.669 238.868  1.00  0.00     0.001 A 
ATOM     11  C23 UNK     1       3.885  33.328 238.399  1.00  0.00     0.002 A 
ATOM     12  C24 UNK     1       0.581  33.418 232.339  1.00  0.00     0.017 A 
ATOM     13  C25 UNK     1       1.381  31.152 232.587  1.00  0.00     0.017 A 
ATOM     14  C26 UNK     1       0.206  33.142 231.025  1.00  0.00     0.043 A 
ATOM     15  C27 UNK     1       1.006  30.877 231.272  1.00  0.00     0.043 A 
ATOM     16  C28 UNK     1       0.419  31.872 230.491  1.00  0.00     0.116 A 
ATOM     17  H19 UNK     1       3.633  32.309 234.313  1.00  0.00     0.166 HD
ENDROOT
BRANCH   3  18
ATOM     18  C7  UNK     1      -0.673  33.375 235.563  1.00  0.00     0.144 C 
BRANCH  18  19
ATOM     19  C8  UNK     1      -1.063  34.528 236.481  1.00  0.00     0.224 C 
ATOM     20  O1  UNK     1      -1.385  34.320 237.654  1.00  0.00    -0.273 OA
ATOM     21  N1  UNK     1      -1.023  35.810 235.888  1.00  0.00    -0.352 N 
BRANCH  21  22
ATOM     22  C1  UNK     1      -0.632  36.008 234.486  1.00  0.00     0.125 C 
BRANCH  22  23
ATOM     23  C3  UNK     1      -1.815  36.370 233.593  1.00  0.00     0.020 C 
BRANCH  23  24
ATOM     24  C5  UNK     1      -1.385  36.730 232.167  1.00  0.00     0.002 C 
BRANCH  24  25
ATOM     25  C10 UNK     1      -2.500  36.429 231.162  1.00  0.00    -0.000 C 
BRANCH  25  26
ATOM     26  C15 UNK     1      -1.996  35.771 229.876  1.00  0.00    -0.005 C 
ATOM     27  C20 UNK     1      -1.117  36.682 229.032  1.00  0.00     0.005 C 
ENDBRANCH  25  26
ENDBRANCH  24  25
ENDBRANCH  23  24
ENDBRANCH  22  23
ENDBRANCH  21  22
BRANCH  21  28
ATOM     28  C2  UNK     1      -1.361  36.999 236.620  1.00  0.00     0.125 C 
BRANCH  28  29
ATOM     29  C4  UNK     1      -0.226  38.019 236.639  1.00  0.00     0.020 C 
BRANCH  29  30
ATOM     30  C6  UNK     1       1.012  37.508 237.384  1.00  0.00     0.002 C 
BRANCH  30  31
ATOM     31  C11 UNK     1       2.241  37.503 236.472  1.00  0.00    -0.000 C 
BRANCH  31  32
ATOM     32  C16 UNK     1       3.452  36.802 237.091  1.00  0.00    -0.005 C 
ATOM     33  C21 UNK     1       3.765  37.263 238.507  1.00  0.00     0.005 C 
ENDBRANCH  31  32
ENDBRANCH  30  31
ENDBRANCH  29  30
ENDBRANCH  28  29
ENDBRANCH  21  28
ENDBRANCH  18  19
ENDBRANCH   3  18
TORSDOF 12
ENDMDL
MODEL 7
REMARK VINA RESULT:      -5.3      2.331      5.656
REMARK  12 active torsions:
REMARK  status: ('A' for Active; 'I' for Inactive)
REMARK    1  A    between atoms: N1_3  and  C1_5 
REMARK    2  A    between atoms: N1_3  and  C2_6 
REMARK       I    between atoms: N1_3  and  C8_12 
REMARK    3  A    between atoms: C1_5  and  C3_7 
REMARK    4  A    between atoms: C2_6  and  C4_8 
REMARK    5  A    between atoms: C3_7  and  C5_9 
REMARK    6  A    between atoms: C4_8  and  C6_10 
REMARK    7  A    between atoms: C5_9  and  C10_14 
REMARK    8  A    between atoms: C6_10  and  C11_15 
REMARK    9  A    between atoms: C7_11  and  C8_12 
REMARK   10  A    between atoms: C7_11  and  C9_13 
REMARK   11  A    between atoms: C10_14  and  C15_19 
REMARK   12  A    between atoms: C11_15  and  C16_20 
ROOT
ATOM      1  F1  UNK     1      -2.067  38.980 237.297  1.00  0.00    -0.206 F 
ATOM      2  N2  UNK     1       2.287  34.296 237.094  1.00  0.00    -0.354 N 
ATOM      3  C9  UNK     1       1.365  33.840 235.126  1.00  0.00    -0.009 A 
ATOM      4  C12 UNK     1       2.414  32.907 235.353  1.00  0.00    -0.000 A 
ATOM      5  C13 UNK     1       1.310  34.681 236.214  1.00  0.00     0.050 A 
ATOM      6  C14 UNK     1       2.976  33.215 236.594  1.00  0.00     0.043 A 
ATOM      7  C17 UNK     1       0.435  35.795 236.495  1.00  0.00    -0.009 A 
ATOM      8  C18 UNK     1       2.942  31.825 234.619  1.00  0.00     0.014 A 
ATOM      9  C19 UNK     1       4.043  32.493 237.140  1.00  0.00     0.030 A 
ATOM     10  C22 UNK     1       4.009  31.094 235.154  1.00  0.00     0.001 A 
ATOM     11  C23 UNK     1       4.550  31.425 236.395  1.00  0.00     0.002 A 
ATOM     12  C24 UNK     1      -0.944  35.598 236.570  1.00  0.00     0.017 A 
ATOM     13  C25 UNK     1       0.968  37.070 236.690  1.00  0.00     0.017 A 
ATOM     14  C26 UNK     1      -1.789  36.674 236.841  1.00  0.00     0.043 A 
ATOM     15  C27 UNK     1       0.123  38.145 236.962  1.00  0.00     0.043 A 
ATOM     16  C28 UNK     1      -1.256  37.947 237.037  1.00  0.00     0.116 A 
ATOM     17  H19 UNK     1       2.476  34.737 237.984  1.00  0.00     0.166 HD
ENDROOT
BRANCH   3  18
ATOM     18  C7  UNK     1       0.479  33.893 233.917  1.00  0.00     0.144 C 
BRANCH  18  19
ATOM     19  C8  UNK     1       1.109  34.664 232.763  1.00  0.00     0.224 C 
ATOM     20  O1  UNK     1       1.819  35.651 232.976  1.00  0.00    -0.273 OA
ATOM     21  N1  UNK     1       0.819  34.162 231.474  1.00  0.00    -0.352 N 
BRANCH  21  22
ATOM     22  C1  UNK     1      -0.031  32.983 231.270  1.00  0.00     0.125 C 
BRANCH  22  23
ATOM     23  C3  UNK     1       0.749  31.675 231.363  1.00  0.00     0.020 C 
BRANCH  23  24
ATOM     24  C5  UNK     1      -0.114  30.510 231.860  1.00  0.00     0.002 C 
BRANCH  24  25
ATOM     25  C10 UNK     1       0.003  30.345 233.377  1.00  0.00    -0.000 C 
BRANCH  25  26
ATOM     26  C15 UNK     1      -1.334  30.488 234.108  1.00  0.00    -0.005 C 
ATOM     27  C20 UNK     1      -1.200  31.053 235.514  1.00  0.00     0.005 C 
ENDBRANCH  25  26
ENDBRANCH  24  25
ENDBRANCH  23  24
ENDBRANCH  22  23
ENDBRANCH  21  22
BRANCH  21  28
ATOM     28  C2  UNK     1       1.338  34.777 230.283  1.00  0.00     0.125 C 
BRANCH  28  29
ATOM     29  C4  UNK     1       0.249  35.090 229.262  1.00  0.00     0.020 C 
BRANCH  29  30
ATOM     30  C6  UNK     1      -0.663  36.238 229.709  1.00  0.00     0.002 C 
BRANCH  30  31
ATOM     31  C11 UNK     1      -2.104  35.757 229.899  1.00  0.00    -0.000 C 
BRANCH  31  32
ATOM     32  C16 UNK     1      -2.709  36.169 231.242  1.00  0.00    -0.005 C 
ATOM     33  C21 UNK     1      -1.691  36.734 232.221  1.00  0.00     0.005 C 
ENDBRANCH  31  32
ENDBRANCH  30  31
ENDBRANCH  29  30
ENDBRANCH  28  29
ENDBRANCH  21  28
ENDBRANCH  18  19
ENDBRANCH   3  18
TORSDOF 12
ENDMDL
MODEL 8
REMARK VINA RESULT:      -5.3      1.887      2.688
REMARK  12 active torsions:
REMARK  status: ('A' for Active; 'I' for Inactive)
REMARK    1  A    between atoms: N1_3  and  C1_5 
REMARK    2  A    between atoms: N1_3  and  C2_6 
REMARK       I    between atoms: N1_3  and  C8_12 
REMARK    3  A    between atoms: C1_5  and  C3_7 
REMARK    4  A    between atoms: C2_6  and  C4_8 
REMARK    5  A    between atoms: C3_7  and  C5_9 
REMARK    6  A    between atoms: C4_8  and  C6_10 
REMARK    7  A    between atoms: C5_9  and  C10_14 
REMARK    8  A    between atoms: C6_10  and  C11_15 
REMARK    9  A    between atoms: C7_11  and  C8_12 
REMARK   10  A    between atoms: C7_11  and  C9_13 
REMARK   11  A    between atoms: C10_14  and  C15_19 
REMARK   12  A    between atoms: C11_15  and  C16_20 
ROOT
ATOM      1  F1  UNK     1       2.141  37.835 238.172  1.00  0.00    -0.206 F 
ATOM      2  N2  UNK     1      -1.296  36.826 232.870  1.00  0.00    -0.354 N 
ATOM      3  C9  UNK     1      -0.098  34.963 232.728  1.00  0.00    -0.009 A 
ATOM      4  C12 UNK     1      -0.991  35.004 231.620  1.00  0.00    -0.000 A 
ATOM      5  C13 UNK     1      -0.308  36.096 233.478  1.00  0.00     0.050 A 
ATOM      6  C14 UNK     1      -1.731  36.184 231.734  1.00  0.00     0.043 A 
ATOM      7  C17 UNK     1       0.326  36.547 234.694  1.00  0.00    -0.009 A 
ATOM      8  C18 UNK     1      -1.241  34.149 230.528  1.00  0.00     0.014 A 
ATOM      9  C19 UNK     1      -2.711  36.552 230.807  1.00  0.00     0.030 A 
ATOM     10  C22 UNK     1      -2.220  34.505 229.593  1.00  0.00     0.001 A 
ATOM     11  C23 UNK     1      -2.943  35.689 229.732  1.00  0.00     0.002 A 
ATOM     12  C24 UNK     1       1.702  36.778 234.720  1.00  0.00     0.017 A 
ATOM     13  C25 UNK     1      -0.436  36.751 235.845  1.00  0.00     0.017 A 
ATOM     14  C26 UNK     1       2.315  37.213 235.894  1.00  0.00     0.043 A 
ATOM     15  C27 UNK     1       0.178  37.187 237.019  1.00  0.00     0.043 A 
ATOM     16  C28 UNK     1       1.553  37.417 237.044  1.00  0.00     0.116 A 
ATOM     17  H19 UNK     1      -1.655  37.711 233.203  1.00  0.00     0.166 HD
ENDROOT
BRANCH   3  18
ATOM     18  C7  UNK     1       0.893  33.875 233.019  1.00  0.00     0.144 C 
BRANCH  18  19
ATOM     19  C8  UNK     1       0.284  32.726 233.813  1.00  0.00     0.224 C 
ATOM     20  O1  UNK     1      -0.614  32.031 233.330  1.00  0.00    -0.273 OA
ATOM     21  N1  UNK     1       0.822  32.536 235.106  1.00  0.00    -0.352 N 
BRANCH  21  22
ATOM     22  C1  UNK     1       1.892  33.389 235.638  1.00  0.00     0.125 C 
BRANCH  22  23
ATOM     23  C3  UNK     1       3.224  32.654 235.757  1.00  0.00     0.020 C 
BRANCH  23  24
ATOM     24  C5  UNK     1       3.941  32.949 237.079  1.00  0.00     0.002 C 
BRANCH  24  25
ATOM     25  C10 UNK     1       3.795  34.422 237.469  1.00  0.00    -0.000 C 
BRANCH  25  26
ATOM     26  C15 UNK     1       3.424  34.625 238.940  1.00  0.00    -0.005 C 
ATOM     27  C20 UNK     1       4.241  35.707 239.629  1.00  0.00     0.005 C 
ENDBRANCH  25  26
ENDBRANCH  24  25
ENDBRANCH  23  24
ENDBRANCH  22  23
ENDBRANCH  21  22
BRANCH  21  28
ATOM     28  C2  UNK     1       0.355  31.494 235.980  1.00  0.00     0.125 C 
BRANCH  28  29
ATOM     29  C4  UNK     1      -1.010  31.806 236.587  1.00  0.00     0.020 C 
BRANCH  29  30
ATOM     30  C6  UNK     1      -1.052  33.180 237.263  1.00  0.00     0.002 C 
BRANCH  30  31
ATOM     31  C11 UNK     1      -2.289  33.971 236.830  1.00  0.00    -0.000 C 
BRANCH  31  32
ATOM     32  C16 UNK     1      -2.987  33.380 235.604  1.00  0.00    -0.005 C 
ATOM     33  C21 UNK     1      -3.393  34.423 234.573  1.00  0.00     0.005 C 
ENDBRANCH  31  32
ENDBRANCH  30  31
ENDBRANCH  29  30
ENDBRANCH  28  29
ENDBRANCH  21  28
ENDBRANCH  18  19
ENDBRANCH   3  18
TORSDOF 12
ENDMDL
MODEL 9
REMARK VINA RESULT:      -5.2      6.401      9.206
REMARK  12 active torsions:
REMARK  status: ('A' for Active; 'I' for Inactive)
REMARK    1  A    between atoms: N1_3  and  C1_5 
REMARK    2  A    between atoms: N1_3  and  C2_6 
REMARK       I    between atoms: N1_3  and  C8_12 
REMARK    3  A    between atoms: C1_5  and  C3_7 
REMARK    4  A    between atoms: C2_6  and  C4_8 
REMARK    5  A    between atoms: C3_7  and  C5_9 
REMARK    6  A    between atoms: C4_8  and  C6_10 
REMARK    7  A    between atoms: C5_9  and  C10_14 
REMARK    8  A    between atoms: C6_10  and  C11_15 
REMARK    9  A    between atoms: C7_11  and  C8_12 
REMARK   10  A    between atoms: C7_11  and  C9_13 
REMARK   11  A    between atoms: C10_14  and  C15_19 
REMARK   12  A    between atoms: C11_15  and  C16_20 
ROOT
ATOM      1  F1  UNK     1       4.566  42.599 228.716  1.00  0.00    -0.206 F 
ATOM      2  N2  UNK     1      -0.967  41.233 225.809  1.00  0.00    -0.354 N 
ATOM      3  C9  UNK     1      -1.247  39.832 227.508  1.00  0.00    -0.009 A 
ATOM      4  C12 UNK     1      -2.383  39.733 226.657  1.00  0.00    -0.000 A 
ATOM      5  C13 UNK     1      -0.394  40.762 226.960  1.00  0.00     0.050 A 
ATOM      6  C14 UNK     1      -2.183  40.623 225.599  1.00  0.00     0.043 A 
ATOM      7  C17 UNK     1       0.891  41.238 227.415  1.00  0.00    -0.009 A 
ATOM      8  C18 UNK     1      -3.567  38.969 226.685  1.00  0.00     0.014 A 
ATOM      9  C19 UNK     1      -3.109  40.787 224.564  1.00  0.00     0.030 A 
ATOM     10  C22 UNK     1      -4.504  39.123 225.656  1.00  0.00     0.001 A 
ATOM     11  C23 UNK     1      -4.277  40.019 224.613  1.00  0.00     0.002 A 
ATOM     12  C24 UNK     1       1.952  40.345 227.568  1.00  0.00     0.017 A 
ATOM     13  C25 UNK     1       1.072  42.591 227.703  1.00  0.00     0.017 A 
ATOM     14  C26 UNK     1       3.193  40.805 228.007  1.00  0.00     0.043 A 
ATOM     15  C27 UNK     1       2.314  43.050 228.142  1.00  0.00     0.043 A 
ATOM     16  C28 UNK     1       3.374  42.157 228.294  1.00  0.00     0.116 A 
ATOM     17  H19 UNK     1      -0.560  41.928 225.197  1.00  0.00     0.166 HD
ENDROOT
BRANCH   3  18
ATOM     18  C7  UNK     1      -1.024  39.058 228.774  1.00  0.00     0.144 C 
BRANCH  18  19
ATOM     19  C8  UNK     1      -0.594  37.620 228.511  1.00  0.00     0.224 C 
ATOM     20  O1  UNK     1       0.469  37.374 227.933  1.00  0.00    -0.273 OA
ATOM     21  N1  UNK     1      -1.489  36.630 228.974  1.00  0.00    -0.352 N 
BRANCH  21  22
ATOM     22  C1  UNK     1      -2.743  36.971 229.657  1.00  0.00     0.125 C 
BRANCH  22  23
ATOM     23  C3  UNK     1      -2.826  36.379 231.061  1.00  0.00     0.020 C 
BRANCH  23  24
ATOM     24  C5  UNK     1      -1.632  36.774 231.936  1.00  0.00     0.002 C 
BRANCH  24  25
ATOM     25  C10 UNK     1      -0.962  35.540 232.546  1.00  0.00    -0.000 C 
BRANCH  25  26
ATOM     26  C15 UNK     1       0.456  35.300 232.024  1.00  0.00    -0.005 C 
ATOM     27  C20 UNK     1       0.797  33.829 231.846  1.00  0.00     0.005 C 
ENDBRANCH  25  26
ENDBRANCH  24  25
ENDBRANCH  23  24
ENDBRANCH  22  23
ENDBRANCH  21  22
BRANCH  21  28
ATOM     28  C2  UNK     1      -1.228  35.227 228.804  1.00  0.00     0.125 C 
BRANCH  28  29
ATOM     29  C4  UNK     1      -2.261  34.541 227.915  1.00  0.00     0.020 C 
BRANCH  29  30
ATOM     30  C6  UNK     1      -2.729  33.198 228.486  1.00  0.00     0.002 C 
BRANCH  30  31
ATOM     31  C11 UNK     1      -2.057  32.905 229.829  1.00  0.00    -0.000 C 
BRANCH  31  32
ATOM     32  C16 UNK     1      -3.053  32.628 230.958  1.00  0.00    -0.005 C 
ATOM     33  C21 UNK     1      -4.480  33.037 230.624  1.00  0.00     0.005 C 
ENDBRANCH  31  32
ENDBRANCH  30  31
ENDBRANCH  29  30
ENDBRANCH  28  29
ENDBRANCH  21  28
ENDBRANCH  18  19
ENDBRANCH   3  18
TORSDOF 12
ENDMDL
