MODEL 1
REMARK VINA RESULT:      -7.2      0.000      0.000
REMARK  0 active torsions:
REMARK  status: ('A' for Active; 'I' for Inactive)
ROOT
ATOM      1 Cl1  UNK     1      -2.019  38.783 237.379  1.00  0.00    -0.084 Cl
ATOM      2  N1  UNK     1      -0.082  33.842 232.466  1.00  0.00    -0.363 N 
ATOM      3  N2  UNK     1      -0.901  32.228 230.270  1.00  0.00     0.087 N 
ATOM      4  N3  UNK     1      -0.154  35.431 234.074  1.00  0.00    -0.340 N 
ATOM      5  H3  UNK     1      -0.855  35.852 233.463  1.00  0.00     0.167 HD
ATOM      6  N4  UNK     1       2.470  35.381 235.522  1.00  0.00    -0.354 N 
ATOM      7  C1  UNK     1      -1.502  33.708 232.155  1.00  0.00     0.154 C 
ATOM      8  C2  UNK     1       0.826  33.632 231.343  1.00  0.00     0.154 C 
ATOM      9  C3  UNK     1      -1.763  32.375 231.452  1.00  0.00     0.291 C 
ATOM     10  C4  UNK     1       0.514  32.300 230.657  1.00  0.00     0.291 C 
ATOM     11  C5  UNK     1       0.350  34.303 233.662  1.00  0.00     0.116 C 
ATOM     12  C6  UNK     1       1.374  33.477 234.373  1.00  0.00     0.035 A 
ATOM     13  C7  UNK     1      -1.182  30.969 229.582  1.00  0.00     0.310 C 
ATOM     14  C8  UNK     1       2.416  34.039 235.119  1.00  0.00     0.046 A 
ATOM     15  C9  UNK     1       0.137  36.141 235.240  1.00  0.00     0.062 A 
ATOM     16  C10 UNK     1       1.397  36.226 235.843  1.00  0.00     0.059 A 
ATOM     17  C11 UNK     1       1.338  32.083 234.173  1.00  0.00     0.017 A 
ATOM     18  C12 UNK     1       3.430  33.184 235.601  1.00  0.00     0.030 A 
ATOM     19  C13 UNK     1       2.341  31.255 234.675  1.00  0.00     0.001 A 
ATOM     20  C14 UNK     1      -0.903  36.958 235.726  1.00  0.00     0.055 A 
ATOM     21  C15 UNK     1       3.399  31.810 235.379  1.00  0.00     0.002 A 
ATOM     22  C16 UNK     1       1.582  37.132 236.910  1.00  0.00     0.033 A 
ATOM     23  C17 UNK     1      -0.709  37.838 236.789  1.00  0.00     0.036 A 
ATOM     24  C18 UNK     1       0.541  37.932 237.379  1.00  0.00     0.026 A 
ATOM     25  H13 UNK     1       3.369  35.680 235.887  1.00  0.00     0.166 HD
ENDROOT
TORSDOF 0
ENDMDL
MODEL 2
REMARK VINA RESULT:      -7.2      3.618      5.016
REMARK  0 active torsions:
REMARK  status: ('A' for Active; 'I' for Inactive)
ROOT
ATOM      1 Cl1  UNK     1       5.782  35.587 240.763  1.00  0.00    -0.084 Cl
ATOM      2  N1  UNK     1      -0.246  33.695 237.244  1.00  0.00    -0.363 N 
ATOM      3  N2  UNK     1      -2.457  31.909 237.112  1.00  0.00     0.087 N 
ATOM      4  N3  UNK     1       1.597  34.734 238.045  1.00  0.00    -0.340 N 
ATOM      5  H3  UNK     1       1.243  34.412 238.946  1.00  0.00     0.167 HD
ATOM      6  N4  UNK     1       2.390  36.837 236.063  1.00  0.00    -0.354 N 
ATOM      7  C1  UNK     1      -0.251  32.485 238.063  1.00  0.00     0.154 C 
ATOM      8  C2  UNK     1      -1.562  34.198 236.866  1.00  0.00     0.154 C 
ATOM      9  C3  UNK     1      -1.106  31.405 237.399  1.00  0.00     0.291 C 
ATOM     10  C4  UNK     1      -2.389  33.080 236.228  1.00  0.00     0.291 C 
ATOM     11  C5  UNK     1       0.887  34.396 237.007  1.00  0.00     0.116 C 
ATOM     12  C6  UNK     1       1.190  34.722 235.579  1.00  0.00     0.035 A 
ATOM     13  C7  UNK     1      -3.281  30.860 236.513  1.00  0.00     0.310 C 
ATOM     14  C8  UNK     1       1.774  35.932 235.187  1.00  0.00     0.046 A 
ATOM     15  C9  UNK     1       2.777  35.478 238.087  1.00  0.00     0.062 A 
ATOM     16  C10 UNK     1       3.089  36.550 237.245  1.00  0.00     0.059 A 
ATOM     17  C11 UNK     1       0.756  33.810 234.597  1.00  0.00     0.017 A 
ATOM     18  C12 UNK     1       1.856  36.218 233.807  1.00  0.00     0.030 A 
ATOM     19  C13 UNK     1       0.864  34.107 233.239  1.00  0.00     0.001 A 
ATOM     20  C14 UNK     1       3.622  35.210 239.183  1.00  0.00     0.055 A 
ATOM     21  C15 UNK     1       1.403  35.321 232.843  1.00  0.00     0.002 A 
ATOM     22  C16 UNK     1       4.233  37.328 237.527  1.00  0.00     0.033 A 
ATOM     23  C17 UNK     1       4.755  35.978 239.441  1.00  0.00     0.036 A 
ATOM     24  C18 UNK     1       5.058  37.047 238.614  1.00  0.00     0.026 A 
ATOM     25  H13 UNK     1       2.593  37.748 235.661  1.00  0.00     0.166 HD
ENDROOT
TORSDOF 0
ENDMDL
MODEL 3
REMARK VINA RESULT:      -6.8      3.424      6.694
REMARK  0 active torsions:
REMARK  status: ('A' for Active; 'I' for Inactive)
ROOT
ATOM      1 Cl1  UNK     1       1.565  33.937 228.691  1.00  0.00    -0.084 Cl
ATOM      2  N1  UNK     1       2.151  36.202 235.534  1.00  0.00    -0.363 N 
ATOM      3  N2  UNK     1       3.867  36.574 237.774  1.00  0.00     0.087 N 
ATOM      4  N3  UNK     1       1.495  35.753 233.417  1.00  0.00    -0.340 N 
ATOM      5  H3  UNK     1       2.459  35.996 233.190  1.00  0.00     0.167 HD
ATOM      6  N4  UNK     1      -1.476  36.128 233.286  1.00  0.00    -0.354 N 
ATOM      7  C1  UNK     1       3.478  35.592 235.541  1.00  0.00     0.154 C 
ATOM      8  C2  UNK     1       2.007  37.391 236.367  1.00  0.00     0.154 C 
ATOM      9  C3  UNK     1       3.933  35.339 236.979  1.00  0.00     0.291 C 
ATOM     10  C4  UNK     1       2.495  37.100 237.788  1.00  0.00     0.291 C 
ATOM     11  C5  UNK     1       1.181  35.802 234.680  1.00  0.00     0.116 C 
ATOM     12  C6  UNK     1      -0.150  35.478 235.278  1.00  0.00     0.035 A 
ATOM     13  C7  UNK     1       4.339  36.334 239.137  1.00  0.00     0.310 C 
ATOM     14  C8  UNK     1      -1.359  35.772 234.637  1.00  0.00     0.046 A 
ATOM     15  C9  UNK     1       0.685  35.410 232.332  1.00  0.00     0.062 A 
ATOM     16  C10 UNK     1      -0.677  35.705 232.213  1.00  0.00     0.059 A 
ATOM     17  C11 UNK     1      -0.168  34.964 236.589  1.00  0.00     0.017 A 
ATOM     18  C12 UNK     1      -2.560  35.591 235.358  1.00  0.00     0.030 A 
ATOM     19  C13 UNK     1      -1.366  34.776 237.275  1.00  0.00     0.001 A 
ATOM     20  C14 UNK     1       1.362  34.876 231.218  1.00  0.00     0.055 A 
ATOM     21  C15 UNK     1      -2.566  35.104 236.663  1.00  0.00     0.002 A 
ATOM     22  C16 UNK     1      -1.321  35.465 230.980  1.00  0.00     0.033 A 
ATOM     23  C17 UNK     1       0.710  34.631 230.011  1.00  0.00     0.036 A 
ATOM     24  C18 UNK     1      -0.636  34.935 229.888  1.00  0.00     0.026 A 
ATOM     25  H13 UNK     1      -2.385  36.494 233.019  1.00  0.00     0.166 HD
ENDROOT
TORSDOF 0
ENDMDL
MODEL 4
REMARK VINA RESULT:      -6.5      3.650      5.548
REMARK  0 active torsions:
REMARK  status: ('A' for Active; 'I' for Inactive)
ROOT
ATOM      1 Cl1  UNK     1       7.081  31.054 239.685  1.00  0.00    -0.084 Cl
ATOM      2  N1  UNK     1       1.370  32.850 235.628  1.00  0.00    -0.363 N 
ATOM      3  N2  UNK     1      -0.281  32.164 233.413  1.00  0.00     0.087 N 
ATOM      4  N3  UNK     1       2.955  32.663 237.230  1.00  0.00    -0.340 N 
ATOM      5  H3  UNK     1       2.823  31.663 237.080  1.00  0.00     0.167 HD
ATOM      6  N4  UNK     1       2.887  35.168 238.875  1.00  0.00    -0.354 N 
ATOM      7  C1  UNK     1       1.796  31.805 234.702  1.00  0.00     0.154 C 
ATOM      8  C2  UNK     1      -0.072  33.067 235.704  1.00  0.00     0.154 C 
ATOM      9  C3  UNK     1       1.182  32.041 233.322  1.00  0.00     0.291 C 
ATOM     10  C4  UNK     1      -0.646  33.276 234.301  1.00  0.00     0.291 C 
ATOM     11  C5  UNK     1       2.231  33.447 236.483  1.00  0.00     0.116 C 
ATOM     12  C6  UNK     1       2.245  34.942 236.490  1.00  0.00     0.035 A 
ATOM     13  C7  UNK     1      -0.865  32.353 232.086  1.00  0.00     0.310 C 
ATOM     14  C8  UNK     1       2.426  35.692 237.659  1.00  0.00     0.046 A 
ATOM     15  C9  UNK     1       3.888  33.011 238.209  1.00  0.00     0.062 A 
ATOM     16  C10 UNK     1       3.788  34.110 239.069  1.00  0.00     0.059 A 
ATOM     17  C11 UNK     1       1.945  35.603 235.283  1.00  0.00     0.017 A 
ATOM     18  C12 UNK     1       2.246  37.090 237.591  1.00  0.00     0.030 A 
ATOM     19  C13 UNK     1       1.789  36.987 235.236  1.00  0.00     0.001 A 
ATOM     20  C14 UNK     1       4.911  32.068 238.431  1.00  0.00     0.055 A 
ATOM     21  C15 UNK     1       1.926  37.732 236.397  1.00  0.00     0.002 A 
ATOM     22  C16 UNK     1       4.708  34.228 240.133  1.00  0.00     0.033 A 
ATOM     23  C17 UNK     1       5.821  32.205 239.477  1.00  0.00     0.036 A 
ATOM     24  C18 UNK     1       5.714  33.286 240.337  1.00  0.00     0.026 A 
ATOM     25  H13 UNK     1       2.784  35.788 239.672  1.00  0.00     0.166 HD
ENDROOT
TORSDOF 0
ENDMDL
MODEL 5
REMARK VINA RESULT:      -6.5      2.890      5.379
REMARK  0 active torsions:
REMARK  status: ('A' for Active; 'I' for Inactive)
ROOT
ATOM      1 Cl1  UNK     1      -4.555  33.986 232.825  1.00  0.00    -0.084 Cl
ATOM      2  N1  UNK     1       1.893  32.821 235.885  1.00  0.00    -0.363 N 
ATOM      3  N2  UNK     1       3.576  30.974 237.248  1.00  0.00     0.087 N 
ATOM      4  N3  UNK     1       0.123  33.621 234.727  1.00  0.00    -0.340 N 
ATOM      5  H3  UNK     1       0.009  32.645 234.453  1.00  0.00     0.167 HD
ATOM      6  N4  UNK     1       0.629  36.526 234.185  1.00  0.00    -0.354 N 
ATOM      7  C1  UNK     1       1.331  31.581 236.415  1.00  0.00     0.154 C 
ATOM      8  C2  UNK     1       3.319  32.779 235.580  1.00  0.00     0.154 C 
ATOM      9  C3  UNK     1       2.156  31.097 237.608  1.00  0.00     0.291 C 
ATOM     10  C4  UNK     1       4.102  32.268 236.792  1.00  0.00     0.291 C 
ATOM     11  C5  UNK     1       1.114  33.869 235.535  1.00  0.00     0.116 C 
ATOM     12  C6  UNK     1       1.487  35.203 236.099  1.00  0.00     0.035 A 
ATOM     13  C7  UNK     1       4.352  30.475 238.383  1.00  0.00     0.310 C 
ATOM     14  C8  UNK     1       1.360  36.394 235.374  1.00  0.00     0.046 A 
ATOM     15  C9  UNK     1      -0.804  34.515 234.187  1.00  0.00     0.062 A 
ATOM     16  C10 UNK     1      -0.533  35.834 233.809  1.00  0.00     0.059 A 
ATOM     17  C11 UNK     1       2.098  35.226 237.368  1.00  0.00     0.017 A 
ATOM     18  C12 UNK     1       1.903  37.574 235.926  1.00  0.00     0.030 A 
ATOM     19  C13 UNK     1       2.612  36.407 237.901  1.00  0.00     0.001 A 
ATOM     20  C14 UNK     1      -2.056  33.959 233.855  1.00  0.00     0.055 A 
ATOM     21  C15 UNK     1       2.527  37.582 237.171  1.00  0.00     0.002 A 
ATOM     22  C16 UNK     1      -1.518  36.556 233.102  1.00  0.00     0.033 A 
ATOM     23  C17 UNK     1      -3.025  34.689 233.170  1.00  0.00     0.036 A 
ATOM     24  C18 UNK     1      -2.751  35.992 232.784  1.00  0.00     0.026 A 
ATOM     25  H13 UNK     1       0.787  37.393 233.682  1.00  0.00     0.166 HD
ENDROOT
TORSDOF 0
ENDMDL
MODEL 6
REMARK VINA RESULT:      -6.5      6.543      8.774
REMARK  0 active torsions:
REMARK  status: ('A' for Active; 'I' for Inactive)
ROOT
ATOM      1 Cl1  UNK     1       2.311  41.504 226.913  1.00  0.00    -0.084 Cl
ATOM      2  N1  UNK     1      -1.935  36.567 230.059  1.00  0.00    -0.363 N 
ATOM      3  N2  UNK     1      -2.069  34.274 231.740  1.00  0.00     0.087 N 
ATOM      4  N3  UNK     1      -1.076  38.364 228.988  1.00  0.00    -0.340 N 
ATOM      5  H3  UNK     1      -0.383  38.332 229.735  1.00  0.00     0.167 HD
ATOM      6  N4  UNK     1      -3.295  39.642 227.430  1.00  0.00    -0.354 N 
ATOM      7  C1  UNK     1      -0.711  35.848 230.403  1.00  0.00     0.154 C 
ATOM      8  C2  UNK     1      -3.028  36.433 231.016  1.00  0.00     0.154 C 
ATOM      9  C3  UNK     1      -1.029  34.382 230.705  1.00  0.00     0.291 C 
ATOM     10  C4  UNK     1      -3.296  34.954 231.305  1.00  0.00     0.291 C 
ATOM     11  C5  UNK     1      -1.989  37.436 229.023  1.00  0.00     0.116 C 
ATOM     12  C6  UNK     1      -3.102  37.247 228.044  1.00  0.00     0.035 A 
ATOM     13  C7  UNK     1      -2.341  32.871 232.050  1.00  0.00     0.310 C 
ATOM     14  C8  UNK     1      -3.761  38.319 227.431  1.00  0.00     0.046 A 
ATOM     15  C9  UNK     1      -0.921  39.396 228.061  1.00  0.00     0.062 A 
ATOM     16  C10 UNK     1      -1.964  40.085 227.433  1.00  0.00     0.059 A 
ATOM     17  C11 UNK     1      -3.569  35.935 227.833  1.00  0.00     0.017 A 
ATOM     18  C12 UNK     1      -4.912  38.045 226.661  1.00  0.00     0.030 A 
ATOM     19  C13 UNK     1      -4.697  35.686 227.053  1.00  0.00     0.001 A 
ATOM     20  C14 UNK     1       0.397  39.867 227.896  1.00  0.00     0.055 A 
ATOM     21  C15 UNK     1      -5.380  36.746 226.477  1.00  0.00     0.002 A 
ATOM     22  C16 UNK     1      -1.660  41.230 226.665  1.00  0.00     0.033 A 
ATOM     23  C17 UNK     1       0.684  40.991 227.124  1.00  0.00     0.036 A 
ATOM     24  C18 UNK     1      -0.351  41.681 226.512  1.00  0.00     0.026 A 
ATOM     25  H13 UNK     1      -3.971  40.331 227.114  1.00  0.00     0.166 HD
ENDROOT
TORSDOF 0
ENDMDL
MODEL 7
REMARK VINA RESULT:      -6.4      3.282      6.252
REMARK  0 active torsions:
REMARK  status: ('A' for Active; 'I' for Inactive)
ROOT
ATOM      1 Cl1  UNK     1       1.103  34.952 229.469  1.00  0.00    -0.084 Cl
ATOM      2  N1  UNK     1       2.378  34.374 236.564  1.00  0.00    -0.363 N 
ATOM      3  N2  UNK     1       4.161  33.473 238.591  1.00  0.00     0.087 N 
ATOM      4  N3  UNK     1       1.595  34.898 234.508  1.00  0.00    -0.340 N 
ATOM      5  H3  UNK     1       2.586  34.958 234.273  1.00  0.00     0.167 HD
ATOM      6  N4  UNK     1      -1.162  36.024 234.843  1.00  0.00    -0.354 N 
ATOM      7  C1  UNK     1       3.488  33.492 236.214  1.00  0.00     0.154 C 
ATOM      8  C2  UNK     1       2.575  35.179 237.766  1.00  0.00     0.154 C 
ATOM      9  C3  UNK     1       3.877  32.633 237.418  1.00  0.00     0.291 C 
ATOM     10  C4  UNK     1       2.985  34.283 238.936  1.00  0.00     0.291 C 
ATOM     11  C5  UNK     1       1.325  34.565 235.737  1.00  0.00     0.116 C 
ATOM     12  C6  UNK     1      -0.037  34.390 236.331  1.00  0.00     0.035 A 
ATOM     13  C7  UNK     1       4.568  32.647 239.727  1.00  0.00     0.310 C 
ATOM     14  C8  UNK     1      -1.128  35.187 235.968  1.00  0.00     0.046 A 
ATOM     15  C9  UNK     1       0.708  35.183 233.468  1.00  0.00     0.062 A 
ATOM     16  C10 UNK     1      -0.524  35.831 233.609  1.00  0.00     0.059 A 
ATOM     17  C11 UNK     1      -0.176  33.460 237.379  1.00  0.00     0.017 A 
ATOM     18  C12 UNK     1      -2.322  35.064 236.711  1.00  0.00     0.030 A 
ATOM     19  C13 UNK     1      -1.370  33.342 238.087  1.00  0.00     0.001 A 
ATOM     20  C14 UNK     1       1.199  34.936 232.170  1.00  0.00     0.055 A 
ATOM     21  C15 UNK     1      -2.443  34.158 237.762  1.00  0.00     0.002 A 
ATOM     22  C16 UNK     1      -1.225  36.220 232.448  1.00  0.00     0.033 A 
ATOM     23  C17 UNK     1       0.488  35.314 231.033  1.00  0.00     0.036 A 
ATOM     24  C18 UNK     1      -0.726  35.967 231.172  1.00  0.00     0.026 A 
ATOM     25  H13 UNK     1      -1.941  36.676 234.821  1.00  0.00     0.166 HD
ENDROOT
TORSDOF 0
ENDMDL
MODEL 8
REMARK VINA RESULT:      -6.3      6.508      8.793
REMARK  0 active torsions:
REMARK  status: ('A' for Active; 'I' for Inactive)
ROOT
ATOM      1 Cl1  UNK     1       2.075  41.390 226.710  1.00  0.00    -0.084 Cl
ATOM      2  N1  UNK     1      -1.972  36.317 229.904  1.00  0.00    -0.363 N 
ATOM      3  N2  UNK     1      -2.005  33.981 231.529  1.00  0.00     0.087 N 
ATOM      4  N3  UNK     1      -1.181  38.152 228.844  1.00  0.00    -0.340 N 
ATOM      5  H3  UNK     1      -0.457  38.111 229.561  1.00  0.00     0.167 HD
ATOM      6  N4  UNK     1      -3.481  39.439 227.416  1.00  0.00    -0.354 N 
ATOM      7  C1  UNK     1      -0.726  35.606 230.178  1.00  0.00     0.154 C 
ATOM      8  C2  UNK     1      -3.021  36.144 230.902  1.00  0.00     0.154 C 
ATOM      9  C3  UNK     1      -1.013  34.130 230.455  1.00  0.00     0.291 C 
ATOM     10  C4  UNK     1      -3.259  34.656 231.164  1.00  0.00     0.291 C 
ATOM     11  C5  UNK     1      -2.080  37.212 228.894  1.00  0.00     0.116 C 
ATOM     12  C6  UNK     1      -3.232  37.032 227.958  1.00  0.00     0.035 A 
ATOM     13  C7  UNK     1      -2.247  32.567 231.814  1.00  0.00     0.310 C 
ATOM     14  C8  UNK     1      -3.929  38.111 227.401  1.00  0.00     0.046 A 
ATOM     15  C9  UNK     1      -1.079  39.210 227.938  1.00  0.00     0.062 A 
ATOM     16  C10 UNK     1      -2.156  39.900 227.373  1.00  0.00     0.059 A 
ATOM     17  C11 UNK     1      -3.691  35.720 227.733  1.00  0.00     0.017 A 
ATOM     18  C12 UNK     1      -5.109  37.841 226.674  1.00  0.00     0.030 A 
ATOM     19  C13 UNK     1      -4.849  35.476 226.996  1.00  0.00     0.001 A 
ATOM     20  C14 UNK     1       0.225  39.703 227.731  1.00  0.00     0.055 A 
ATOM     21  C15 UNK     1      -5.568  36.541 226.477  1.00  0.00     0.002 A 
ATOM     22  C16 UNK     1      -1.900  41.068 226.623  1.00  0.00     0.033 A 
ATOM     23  C17 UNK     1       0.465  40.849 226.976  1.00  0.00     0.036 A 
ATOM     24  C18 UNK     1      -0.603  41.540 226.426  1.00  0.00     0.026 A 
ATOM     25  H13 UNK     1      -4.178  40.127 227.146  1.00  0.00     0.166 HD
ENDROOT
TORSDOF 0
ENDMDL
MODEL 9
REMARK VINA RESULT:      -6.2      3.556      6.287
REMARK  0 active torsions:
REMARK  status: ('A' for Active; 'I' for Inactive)
ROOT
ATOM      1 Cl1  UNK     1      -2.747  34.561 234.463  1.00  0.00    -0.084 Cl
ATOM      2  N1  UNK     1       3.279  32.425 237.844  1.00  0.00    -0.363 N 
ATOM      3  N2  UNK     1       4.525  30.424 239.440  1.00  0.00     0.087 N 
ATOM      4  N3  UNK     1       1.728  33.446 236.552  1.00  0.00    -0.340 N 
ATOM      5  H3  UNK     1       1.419  32.491 236.372  1.00  0.00     0.167 HD
ATOM      6  N4  UNK     1       2.832  36.113 235.743  1.00  0.00    -0.354 N 
ATOM      7  C1  UNK     1       2.465  31.388 238.473  1.00  0.00     0.154 C 
ATOM      8  C2  UNK     1       4.670  32.060 237.594  1.00  0.00     0.154 C 
ATOM      9  C3  UNK     1       3.156  30.872 239.736  1.00  0.00     0.291 C 
ATOM     10  C4  UNK     1       5.313  31.529 238.876  1.00  0.00     0.291 C 
ATOM     11  C5  UNK     1       2.738  33.568 237.365  1.00  0.00     0.116 C 
ATOM     12  C6  UNK     1       3.372  34.849 237.807  1.00  0.00     0.035 A 
ATOM     13  C7  UNK     1       5.166  29.898 240.644  1.00  0.00     0.310 C 
ATOM     14  C8  UNK     1       3.504  35.958 236.964  1.00  0.00     0.046 A 
ATOM     15  C9  UNK     1       1.014  34.449 235.894  1.00  0.00     0.062 A 
ATOM     16  C10 UNK     1       1.557  35.638 235.397  1.00  0.00     0.059 A 
ATOM     17  C11 UNK     1       3.958  34.877 239.087  1.00  0.00     0.017 A 
ATOM     18  C12 UNK     1       4.273  37.053 237.414  1.00  0.00     0.030 A 
ATOM     19  C13 UNK     1       4.698  35.977 239.519  1.00  0.00     0.001 A 
ATOM     20  C14 UNK     1      -0.321  34.130 235.576  1.00  0.00     0.055 A 
ATOM     21  C15 UNK     1       4.868  37.063 238.674  1.00  0.00     0.002 A 
ATOM     22  C16 UNK     1       0.753  36.470 234.589  1.00  0.00     0.033 A 
ATOM     23  C17 UNK     1      -1.109  34.967 234.789  1.00  0.00     0.036 A 
ATOM     24  C18 UNK     1      -0.567  36.139 234.286  1.00  0.00     0.026 A 
ATOM     25  H13 UNK     1       3.173  36.873 235.162  1.00  0.00     0.166 HD
ENDROOT
TORSDOF 0
ENDMDL
