MODEL 1
REMARK VINA RESULT:      -7.7      0.000      0.000
REMARK  7 active torsions:
REMARK  status: ('A' for Active; 'I' for Inactive)
REMARK    1  A    between atoms: N1_4  and  C6_12 
REMARK    2  A    between atoms: N2_5  and  C1_7 
REMARK    3  A    between atoms: C6_12  and  C7_13 
REMARK    4  A    between atoms: C7_13  and  C9_15 
REMARK    5  A    between atoms: C9_15  and  C11_17 
REMARK    6  A    between atoms: C11_17  and  C14_20 
REMARK    7  A    between atoms: C11_17  and  C15_21 
ROOT
ATOM      1  C6  UNK     1       1.324  31.013 234.881  1.00  0.00     0.272 C 
ENDROOT
BRANCH   1   2
ATOM      2  N1  UNK     1       1.872  31.939 235.873  1.00  0.00     0.088 N 
ATOM      3  C4  UNK     1       3.026  32.661 235.320  1.00  0.00     0.274 C 
ATOM      4  C2  UNK     1       3.644  33.596 236.362  1.00  0.00     0.056 C 
ATOM      5  C1  UNK     1       2.606  34.572 236.916  1.00  0.00     0.098 C 
ATOM      6  C3  UNK     1       1.376  33.812 237.412  1.00  0.00     0.056 C 
ATOM      7  C5  UNK     1       0.833  32.871 236.335  1.00  0.00     0.274 C 
BRANCH   5   8
ATOM      8  N2  UNK     1       3.172  35.383 237.964  1.00  0.00    -0.293 N 
ATOM      9  C8  UNK     1       3.935  34.907 239.039  1.00  0.00     0.066 A 
ATOM     10  C12 UNK     1       4.293  36.001 239.824  1.00  0.00     0.063 A 
ATOM     11  C13 UNK     1       4.326  33.625 239.366  1.00  0.00     0.032 A 
ATOM     12  N3  UNK     1       3.760  37.155 239.251  1.00  0.00    -0.306 N 
ATOM     13  C16 UNK     1       5.051  35.873 240.968  1.00  0.00     0.032 A 
ATOM     14  C10 UNK     1       3.045  36.795 238.072  1.00  0.00     0.328 A 
ATOM     15  H17 UNK     1       3.869  38.090 239.622  1.00  0.00     0.171 HD
ATOM     16  O1  UNK     1       2.453  37.557 237.321  1.00  0.00    -0.247 OA
ATOM     17  C18 UNK     1       5.455  34.581 241.315  1.00  0.00     0.002 A 
ATOM     18  C17 UNK     1       5.096  33.470 240.523  1.00  0.00     0.002 A 
ENDBRANCH   5   8
ENDBRANCH   1   2
BRANCH   1  19
ATOM     19  C7  UNK     1       1.900  31.317 233.498  1.00  0.00     0.031 C 
BRANCH  19  20
ATOM     20  C9  UNK     1       0.842  31.957 232.588  1.00  0.00     0.016 C 
BRANCH  20  21
ATOM     21  C11 UNK     1       1.180  33.425 232.218  1.00  0.00     0.051 C 
BRANCH  21  22
ATOM     22  C14 UNK     1       0.964  33.750 230.745  1.00  0.00    -0.049 A 
ATOM     23  C19 UNK     1       1.491  34.919 230.238  1.00  0.00     0.011 A 
ATOM     24  C23 UNK     1       1.292  35.217 228.890  1.00  0.00     0.043 A 
ATOM     25  C27 UNK     1       0.573  34.339 228.080  1.00  0.00     0.116 A 
ATOM     26  F1  UNK     1       0.382  34.625 226.786  1.00  0.00    -0.206 F 
ATOM     27  C25 UNK     1       0.050  33.162 228.618  1.00  0.00     0.043 A 
ATOM     28  C21 UNK     1       0.249  32.864 229.967  1.00  0.00     0.011 A 
ENDBRANCH  21  22
BRANCH  21  29
ATOM     29  C15 UNK     1       0.484  34.443 233.116  1.00  0.00    -0.049 A 
ATOM     30  C20 UNK     1       1.229  35.467 233.659  1.00  0.00     0.011 A 
ATOM     31  C24 UNK     1       0.594  36.398 234.479  1.00  0.00     0.043 A 
ATOM     32  C28 UNK     1      -0.772  36.283 234.737  1.00  0.00     0.116 A 
ATOM     33  F2  UNK     1      -1.383  37.176 235.526  1.00  0.00    -0.206 F 
ATOM     34  C26 UNK     1      -1.502  35.236 234.174  1.00  0.00     0.043 A 
ATOM     35  C22 UNK     1      -0.866  34.304 233.353  1.00  0.00     0.011 A 
ENDBRANCH  21  29
ENDBRANCH  20  21
ENDBRANCH  19  20
ENDBRANCH   1  19
TORSDOF 7
ENDMDL
MODEL 2
REMARK VINA RESULT:      -7.6      4.994      7.182
REMARK  7 active torsions:
REMARK  status: ('A' for Active; 'I' for Inactive)
REMARK    1  A    between atoms: N1_4  and  C6_12 
REMARK    2  A    between atoms: N2_5  and  C1_7 
REMARK    3  A    between atoms: C6_12  and  C7_13 
REMARK    4  A    between atoms: C7_13  and  C9_15 
REMARK    5  A    between atoms: C9_15  and  C11_17 
REMARK    6  A    between atoms: C11_17  and  C14_20 
REMARK    7  A    between atoms: C11_17  and  C15_21 
ROOT
ATOM      1  C6  UNK     1      -1.636  35.913 229.908  1.00  0.00     0.272 C 
ENDROOT
BRANCH   1   2
ATOM      2  N1  UNK     1      -1.083  35.460 231.185  1.00  0.00     0.088 N 
ATOM      3  C4  UNK     1       0.376  35.312 231.089  1.00  0.00     0.274 C 
ATOM      4  C2  UNK     1       0.964  34.788 232.401  1.00  0.00     0.056 C 
ATOM      5  C1  UNK     1       0.585  35.687 233.577  1.00  0.00     0.098 C 
ATOM      6  C3  UNK     1      -0.929  35.900 233.614  1.00  0.00     0.056 C 
ATOM      7  C5  UNK     1      -1.454  36.387 232.263  1.00  0.00     0.274 C 
BRANCH   5   8
ATOM      8  N2  UNK     1       1.063  35.135 234.820  1.00  0.00    -0.293 N 
ATOM      9  C8  UNK     1       1.741  35.847 235.818  1.00  0.00     0.066 A 
ATOM     10  C12 UNK     1       2.028  34.959 236.853  1.00  0.00     0.063 A 
ATOM     11  C13 UNK     1       2.111  37.174 235.882  1.00  0.00     0.032 A 
ATOM     12  N3  UNK     1       1.536  33.700 236.510  1.00  0.00    -0.306 N 
ATOM     13  C16 UNK     1       2.695  35.346 237.994  1.00  0.00     0.032 A 
ATOM     14  C10 UNK     1       0.920  33.780 235.228  1.00  0.00     0.328 A 
ATOM     15  H17 UNK     1       1.613  32.871 237.086  1.00  0.00     0.171 HD
ATOM     16  O1  UNK     1       0.384  32.864 234.621  1.00  0.00    -0.247 OA
ATOM     17  C18 UNK     1       3.079  36.688 238.077  1.00  0.00     0.002 A 
ATOM     18  C17 UNK     1       2.790  37.591 237.032  1.00  0.00     0.002 A 
ENDBRANCH   5   8
ENDBRANCH   1   2
BRANCH   1  19
ATOM     19  C7  UNK     1      -1.656  37.440 229.851  1.00  0.00     0.031 C 
BRANCH  19  20
ATOM     20  C9  UNK     1      -1.160  37.948 228.489  1.00  0.00     0.016 C 
BRANCH  20  21
ATOM     21  C11 UNK     1      -1.350  39.478 228.317  1.00  0.00     0.051 C 
BRANCH  21  22
ATOM     22  C14 UNK     1      -0.041  40.249 228.214  1.00  0.00    -0.049 A 
ATOM     23  C19 UNK     1       0.982  39.726 227.451  1.00  0.00     0.011 A 
ATOM     24  C23 UNK     1       2.181  40.432 227.358  1.00  0.00     0.043 A 
ATOM     25  C27 UNK     1       2.330  41.646 228.029  1.00  0.00     0.116 A 
ATOM     26  F1  UNK     1       3.481  42.324 227.939  1.00  0.00    -0.206 F 
ATOM     27  C25 UNK     1       1.279  42.154 228.794  1.00  0.00     0.043 A 
ATOM     28  C21 UNK     1       0.080  41.447 228.887  1.00  0.00     0.011 A 
ENDBRANCH  21  22
BRANCH  21  29
ATOM     29  C15 UNK     1      -2.294  39.838 227.173  1.00  0.00    -0.049 A 
ATOM     30  C20 UNK     1      -2.136  41.051 226.540  1.00  0.00     0.011 A 
ATOM     31  C24 UNK     1      -2.998  41.380 225.495  1.00  0.00     0.043 A 
ATOM     32  C28 UNK     1      -3.997  40.488 225.108  1.00  0.00     0.116 A 
ATOM     33  F2  UNK     1      -4.826  40.804 224.104  1.00  0.00    -0.206 F 
ATOM     34  C26 UNK     1      -4.134  39.266 225.766  1.00  0.00     0.043 A 
ATOM     35  C22 UNK     1      -3.272  38.937 226.813  1.00  0.00     0.011 A 
ENDBRANCH  21  29
ENDBRANCH  20  21
ENDBRANCH  19  20
ENDBRANCH   1  19
TORSDOF 7
ENDMDL
MODEL 3
REMARK VINA RESULT:      -7.4      2.047      2.802
REMARK  7 active torsions:
REMARK  status: ('A' for Active; 'I' for Inactive)
REMARK    1  A    between atoms: N1_4  and  C6_12 
REMARK    2  A    between atoms: N2_5  and  C1_7 
REMARK    3  A    between atoms: C6_12  and  C7_13 
REMARK    4  A    between atoms: C7_13  and  C9_15 
REMARK    5  A    between atoms: C9_15  and  C11_17 
REMARK    6  A    between atoms: C11_17  and  C14_20 
REMARK    7  A    between atoms: C11_17  and  C15_21 
ROOT
ATOM      1  C6  UNK     1       1.447  30.729 234.235  1.00  0.00     0.272 C 
ENDROOT
BRANCH   1   2
ATOM      2  N1  UNK     1       2.056  31.553 235.280  1.00  0.00     0.088 N 
ATOM      3  C4  UNK     1       1.264  31.483 236.515  1.00  0.00     0.274 C 
ATOM      4  C2  UNK     1       1.858  32.380 237.603  1.00  0.00     0.056 C 
ATOM      5  C1  UNK     1       3.321  32.029 237.874  1.00  0.00     0.098 C 
ATOM      6  C3  UNK     1       4.115  32.024 236.568  1.00  0.00     0.056 C 
ATOM      7  C5  UNK     1       3.446  31.138 235.515  1.00  0.00     0.274 C 
BRANCH   5   8
ATOM      8  N2  UNK     1       3.899  32.940 238.830  1.00  0.00    -0.293 N 
ATOM      9  C8  UNK     1       4.107  34.310 238.624  1.00  0.00     0.066 A 
ATOM     10  C12 UNK     1       4.682  34.832 239.781  1.00  0.00     0.063 A 
ATOM     11  C13 UNK     1       3.835  35.107 237.531  1.00  0.00     0.032 A 
ATOM     12  N3  UNK     1       4.837  33.799 240.707  1.00  0.00    -0.306 N 
ATOM     13  C16 UNK     1       5.015  36.163 239.905  1.00  0.00     0.032 A 
ATOM     14  C10 UNK     1       4.350  32.591 240.132  1.00  0.00     0.328 A 
ATOM     15  H17 UNK     1       5.233  33.906 241.632  1.00  0.00     0.171 HD
ATOM     16  O1  UNK     1       4.331  31.490 240.664  1.00  0.00    -0.247 OA
ATOM     17  C18 UNK     1       4.747  36.985 238.807  1.00  0.00     0.002 A 
ATOM     18  C17 UNK     1       4.164  36.463 237.633  1.00  0.00     0.002 A 
ENDBRANCH   5   8
ENDBRANCH   1   2
BRANCH   1  19
ATOM     19  C7  UNK     1       1.363  31.512 232.925  1.00  0.00     0.031 C 
BRANCH  19  20
ATOM     20  C9  UNK     1       0.390  32.694 233.050  1.00  0.00     0.016 C 
BRANCH  20  21
ATOM     21  C11 UNK     1       1.076  34.062 232.799  1.00  0.00     0.051 C 
BRANCH  21  22
ATOM     22  C14 UNK     1       0.622  34.748 231.517  1.00  0.00    -0.049 A 
ATOM     23  C19 UNK     1      -0.654  35.270 231.457  1.00  0.00     0.011 A 
ATOM     24  C23 UNK     1      -1.069  35.898 230.284  1.00  0.00     0.043 A 
ATOM     25  C27 UNK     1      -0.200  35.990 229.196  1.00  0.00     0.116 A 
ATOM     26  F1  UNK     1      -0.600  36.592 228.069  1.00  0.00    -0.206 F 
ATOM     27  C25 UNK     1       1.085  35.453 229.282  1.00  0.00     0.043 A 
ATOM     28  C21 UNK     1       1.501  34.825 230.457  1.00  0.00     0.011 A 
ENDBRANCH  21  22
BRANCH  21  29
ATOM     29  C15 UNK     1       0.980  35.006 233.994  1.00  0.00    -0.049 A 
ATOM     30  C20 UNK     1       0.122  34.687 235.024  1.00  0.00     0.011 A 
ATOM     31  C24 UNK     1       0.035  35.549 236.116  1.00  0.00     0.043 A 
ATOM     32  C28 UNK     1       0.808  36.709 236.152  1.00  0.00     0.116 A 
ATOM     33  F2  UNK     1       0.724  37.538 237.201  1.00  0.00    -0.206 F 
ATOM     34  C26 UNK     1       1.669  37.007 235.096  1.00  0.00     0.043 A 
ATOM     35  C22 UNK     1       1.755  36.145 234.002  1.00  0.00     0.011 A 
ENDBRANCH  21  29
ENDBRANCH  20  21
ENDBRANCH  19  20
ENDBRANCH   1  19
TORSDOF 7
ENDMDL
MODEL 4
REMARK VINA RESULT:      -7.4      2.658      4.274
REMARK  7 active torsions:
REMARK  status: ('A' for Active; 'I' for Inactive)
REMARK    1  A    between atoms: N1_4  and  C6_12 
REMARK    2  A    between atoms: N2_5  and  C1_7 
REMARK    3  A    between atoms: C6_12  and  C7_13 
REMARK    4  A    between atoms: C7_13  and  C9_15 
REMARK    5  A    between atoms: C9_15  and  C11_17 
REMARK    6  A    between atoms: C11_17  and  C14_20 
REMARK    7  A    between atoms: C11_17  and  C15_21 
ROOT
ATOM      1  C6  UNK     1      -3.076  34.105 231.909  1.00  0.00     0.272 C 
ENDROOT
BRANCH   1   2
ATOM      2  N1  UNK     1      -2.134  34.588 232.921  1.00  0.00     0.088 N 
ATOM      3  C4  UNK     1      -1.632  35.920 232.559  1.00  0.00     0.274 C 
ATOM      4  C2  UNK     1      -0.607  36.419 233.580  1.00  0.00     0.056 C 
ATOM      5  C1  UNK     1      -1.187  36.421 234.994  1.00  0.00     0.098 C 
ATOM      6  C3  UNK     1      -1.781  35.052 235.324  1.00  0.00     0.056 C 
ATOM      7  C5  UNK     1      -2.768  34.599 234.247  1.00  0.00     0.274 C 
BRANCH   5   8
ATOM      8  N2  UNK     1      -0.186  36.800 235.959  1.00  0.00    -0.293 N 
ATOM      9  C8  UNK     1       1.064  36.188 236.116  1.00  0.00     0.066 A 
ATOM     10  C12 UNK     1       1.732  36.844 237.148  1.00  0.00     0.063 A 
ATOM     11  C13 UNK     1       1.640  35.132 235.440  1.00  0.00     0.032 A 
ATOM     12  N3  UNK     1       0.910  37.859 237.638  1.00  0.00    -0.306 N 
ATOM     13  C16 UNK     1       2.997  36.483 237.557  1.00  0.00     0.032 A 
ATOM     14  C10 UNK     1      -0.311  37.855 236.904  1.00  0.00     0.328 A 
ATOM     15  H17 UNK     1       1.153  38.489 238.392  1.00  0.00     0.171 HD
ATOM     16  O1  UNK     1      -1.259  38.611 237.067  1.00  0.00    -0.247 OA
ATOM     17  C18 UNK     1       3.596  35.415 236.883  1.00  0.00     0.002 A 
ATOM     18  C17 UNK     1       2.925  34.747 235.838  1.00  0.00     0.002 A 
ENDBRANCH   5   8
ENDBRANCH   1   2
BRANCH   1  19
ATOM     19  C7  UNK     1      -2.364  33.183 230.920  1.00  0.00     0.031 C 
BRANCH  19  20
ATOM     20  C9  UNK     1      -1.860  31.910 231.616  1.00  0.00     0.016 C 
BRANCH  20  21
ATOM     21  C11 UNK     1      -0.321  31.743 231.516  1.00  0.00     0.051 C 
BRANCH  21  22
ATOM     22  C14 UNK     1       0.359  32.821 230.681  1.00  0.00    -0.049 A 
ATOM     23  C19 UNK     1       0.466  32.638 229.318  1.00  0.00     0.011 A 
ATOM     24  C23 UNK     1       1.088  33.624 228.555  1.00  0.00     0.043 A 
ATOM     25  C27 UNK     1       1.589  34.771 229.170  1.00  0.00     0.116 A 
ATOM     26  F1  UNK     1       2.187  35.719 228.437  1.00  0.00    -0.206 F 
ATOM     27  C25 UNK     1       1.468  34.932 230.551  1.00  0.00     0.043 A 
ATOM     28  C21 UNK     1       0.844  33.945 231.315  1.00  0.00     0.011 A 
ENDBRANCH  21  22
BRANCH  21  29
ATOM     29  C15 UNK     1       0.354  31.591 232.876  1.00  0.00    -0.049 A 
ATOM     30  C20 UNK     1       1.679  31.216 232.920  1.00  0.00     0.011 A 
ATOM     31  C24 UNK     1       2.296  31.077 234.163  1.00  0.00     0.043 A 
ATOM     32  C28 UNK     1       1.572  31.316 235.331  1.00  0.00     0.116 A 
ATOM     33  F2  UNK     1       2.164  31.182 236.525  1.00  0.00    -0.206 F 
ATOM     34  C26 UNK     1       0.232  31.694 235.257  1.00  0.00     0.043 A 
ATOM     35  C22 UNK     1      -0.386  31.833 234.013  1.00  0.00     0.011 A 
ENDBRANCH  21  29
ENDBRANCH  20  21
ENDBRANCH  19  20
ENDBRANCH   1  19
TORSDOF 7
ENDMDL
MODEL 5
REMARK VINA RESULT:      -7.4      5.051      9.721
REMARK  7 active torsions:
REMARK  status: ('A' for Active; 'I' for Inactive)
REMARK    1  A    between atoms: N1_4  and  C6_12 
REMARK    2  A    between atoms: N2_5  and  C1_7 
REMARK    3  A    between atoms: C6_12  and  C7_13 
REMARK    4  A    between atoms: C7_13  and  C9_15 
REMARK    5  A    between atoms: C9_15  and  C11_17 
REMARK    6  A    between atoms: C11_17  and  C14_20 
REMARK    7  A    between atoms: C11_17  and  C15_21 
ROOT
ATOM      1  C6  UNK     1      -0.763  34.034 232.390  1.00  0.00     0.272 C 
ENDROOT
BRANCH   1   2
ATOM      2  N1  UNK     1      -1.306  34.856 231.307  1.00  0.00     0.088 N 
ATOM      3  C4  UNK     1      -2.008  36.026 231.853  1.00  0.00     0.274 C 
ATOM      4  C2  UNK     1      -2.627  36.868 230.737  1.00  0.00     0.056 C 
ATOM      5  C1  UNK     1      -1.574  37.294 229.714  1.00  0.00     0.098 C 
ATOM      6  C3  UNK     1      -0.796  36.076 229.217  1.00  0.00     0.056 C 
ATOM      7  C5  UNK     1      -0.237  35.260 230.384  1.00  0.00     0.274 C 
BRANCH   5   8
ATOM      8  N2  UNK     1      -2.182  38.005 228.617  1.00  0.00    -0.293 N 
ATOM      9  C8  UNK     1      -1.754  39.240 228.113  1.00  0.00     0.066 A 
ATOM     10  C12 UNK     1      -2.598  39.585 227.059  1.00  0.00     0.063 A 
ATOM     11  C13 UNK     1      -0.710  40.056 228.497  1.00  0.00     0.032 A 
ATOM     12  N3  UNK     1      -3.550  38.578 226.902  1.00  0.00    -0.306 N 
ATOM     13  C16 UNK     1      -2.447  40.753 226.344  1.00  0.00     0.032 A 
ATOM     14  C10 UNK     1      -3.311  37.565 227.875  1.00  0.00     0.328 A 
ATOM     15  H17 UNK     1      -4.286  38.579 226.208  1.00  0.00     0.171 HD
ATOM     16  O1  UNK     1      -3.955  36.535 228.024  1.00  0.00    -0.247 OA
ATOM     17  C18 UNK     1      -1.395  41.592 226.720  1.00  0.00     0.002 A 
ATOM     18  C17 UNK     1      -0.536  41.248 227.785  1.00  0.00     0.002 A 
ENDBRANCH   5   8
ENDBRANCH   1   2
BRANCH   1  19
ATOM     19  C7  UNK     1       0.704  34.385 232.637  1.00  0.00     0.031 C 
BRANCH  19  20
ATOM     20  C9  UNK     1       1.268  33.592 233.825  1.00  0.00     0.016 C 
BRANCH  20  21
ATOM     21  C11 UNK     1       2.169  34.456 234.746  1.00  0.00     0.051 C 
BRANCH  21  22
ATOM     22  C14 UNK     1       1.415  35.554 235.485  1.00  0.00    -0.049 A 
ATOM     23  C19 UNK     1       0.182  35.263 236.031  1.00  0.00     0.011 A 
ATOM     24  C23 UNK     1      -0.509  36.269 236.706  1.00  0.00     0.043 A 
ATOM     25  C27 UNK     1       0.048  37.542 236.820  1.00  0.00     0.116 A 
ATOM     26  F1  UNK     1      -0.616  38.508 237.469  1.00  0.00    -0.206 F 
ATOM     27  C25 UNK     1       1.297  37.811 236.259  1.00  0.00     0.043 A 
ATOM     28  C21 UNK     1       1.988  36.804 235.584  1.00  0.00     0.011 A 
ENDBRANCH  21  22
BRANCH  21  29
ATOM     29  C15 UNK     1       3.013  33.624 235.708  1.00  0.00    -0.049 A 
ATOM     30  C20 UNK     1       3.368  32.345 235.340  1.00  0.00     0.011 A 
ATOM     31  C24 UNK     1       4.140  31.585 236.218  1.00  0.00     0.043 A 
ATOM     32  C28 UNK     1       4.538  32.122 237.442  1.00  0.00     0.116 A 
ATOM     33  F2  UNK     1       5.278  31.391 238.285  1.00  0.00    -0.206 F 
ATOM     34  C26 UNK     1       4.164  33.420 237.788  1.00  0.00     0.043 A 
ATOM     35  C22 UNK     1       3.391  34.181 236.909  1.00  0.00     0.011 A 
ENDBRANCH  21  29
ENDBRANCH  20  21
ENDBRANCH  19  20
ENDBRANCH   1  19
TORSDOF 7
ENDMDL
MODEL 6
REMARK VINA RESULT:      -7.4      3.131      4.922
REMARK  7 active torsions:
REMARK  status: ('A' for Active; 'I' for Inactive)
REMARK    1  A    between atoms: N1_4  and  C6_12 
REMARK    2  A    between atoms: N2_5  and  C1_7 
REMARK    3  A    between atoms: C6_12  and  C7_13 
REMARK    4  A    between atoms: C7_13  and  C9_15 
REMARK    5  A    between atoms: C9_15  and  C11_17 
REMARK    6  A    between atoms: C11_17  and  C14_20 
REMARK    7  A    between atoms: C11_17  and  C15_21 
ROOT
ATOM      1  C6  UNK     1      -1.980  36.402 232.424  1.00  0.00     0.272 C 
ENDROOT
BRANCH   1   2
ATOM      2  N1  UNK     1      -1.196  35.897 233.551  1.00  0.00     0.088 N 
ATOM      3  C4  UNK     1       0.240  35.956 233.246  1.00  0.00     0.274 C 
ATOM      4  C2  UNK     1       1.073  35.383 234.394  1.00  0.00     0.056 C 
ATOM      5  C1  UNK     1       0.768  36.096 235.711  1.00  0.00     0.098 C 
ATOM      6  C3  UNK     1      -0.739  36.100 235.974  1.00  0.00     0.056 C 
ATOM      7  C5  UNK     1      -1.511  36.650 234.774  1.00  0.00     0.274 C 
BRANCH   5   8
ATOM      8  N2  UNK     1       1.484  35.487 236.803  1.00  0.00    -0.293 N 
ATOM      9  C8  UNK     1       2.599  36.036 237.450  1.00  0.00     0.066 A 
ATOM     10  C12 UNK     1       2.995  35.145 238.445  1.00  0.00     0.063 A 
ATOM     11  C13 UNK     1       3.270  37.223 237.236  1.00  0.00     0.032 A 
ATOM     12  N3  UNK     1       2.138  34.044 238.425  1.00  0.00    -0.306 N 
ATOM     13  C16 UNK     1       4.071  35.389 239.270  1.00  0.00     0.032 A 
ATOM     14  C10 UNK     1       1.172  34.233 237.396  1.00  0.00     0.328 A 
ATOM     15  H17 UNK     1       2.204  33.248 239.045  1.00  0.00     0.171 HD
ATOM     16  O1  UNK     1       0.268  33.465 237.098  1.00  0.00    -0.247 OA
ATOM     17  C18 UNK     1       4.762  36.587 239.067  1.00  0.00     0.002 A 
ATOM     18  C17 UNK     1       4.366  37.493 238.061  1.00  0.00     0.002 A 
ENDBRANCH   5   8
ENDBRANCH   1   2
BRANCH   1  19
ATOM     19  C7  UNK     1      -2.584  35.241 231.636  1.00  0.00     0.031 C 
BRANCH  19  20
ATOM     20  C9  UNK     1      -2.698  35.586 230.143  1.00  0.00     0.016 C 
BRANCH  20  21
ATOM     21  C11 UNK     1      -1.501  36.429 229.631  1.00  0.00     0.051 C 
BRANCH  21  22
ATOM     22  C14 UNK     1      -0.399  35.598 228.988  1.00  0.00    -0.049 A 
ATOM     23  C19 UNK     1      -0.657  34.961 227.792  1.00  0.00     0.011 A 
ATOM     24  C23 UNK     1       0.352  34.200 227.203  1.00  0.00     0.043 A 
ATOM     25  C27 UNK     1       1.596  34.093 227.823  1.00  0.00     0.116 A 
ATOM     26  F1  UNK     1       2.566  33.361 227.258  1.00  0.00    -0.206 F 
ATOM     27  C25 UNK     1       1.833  34.747 229.033  1.00  0.00     0.043 A 
ATOM     28  C21 UNK     1       0.822  35.508 229.622  1.00  0.00     0.011 A 
ENDBRANCH  21  22
BRANCH  21  29
ATOM     29  C15 UNK     1      -1.926  37.580 228.724  1.00  0.00    -0.049 A 
ATOM     30  C20 UNK     1      -1.053  38.629 228.533  1.00  0.00     0.011 A 
ATOM     31  C24 UNK     1      -1.440  39.681 227.704  1.00  0.00     0.043 A 
ATOM     32  C28 UNK     1      -2.690  39.660 227.087  1.00  0.00     0.116 A 
ATOM     33  F2  UNK     1      -3.063  40.671 226.292  1.00  0.00    -0.206 F 
ATOM     34  C26 UNK     1      -3.554  38.585 227.299  1.00  0.00     0.043 A 
ATOM     35  C22 UNK     1      -3.167  37.532 228.129  1.00  0.00     0.011 A 
ENDBRANCH  21  29
ENDBRANCH  20  21
ENDBRANCH  19  20
ENDBRANCH   1  19
TORSDOF 7
ENDMDL
MODEL 7
REMARK VINA RESULT:      -7.3      4.851      9.782
REMARK  7 active torsions:
REMARK  status: ('A' for Active; 'I' for Inactive)
REMARK    1  A    between atoms: N1_4  and  C6_12 
REMARK    2  A    between atoms: N2_5  and  C1_7 
REMARK    3  A    between atoms: C6_12  and  C7_13 
REMARK    4  A    between atoms: C7_13  and  C9_15 
REMARK    5  A    between atoms: C9_15  and  C11_17 
REMARK    6  A    between atoms: C11_17  and  C14_20 
REMARK    7  A    between atoms: C11_17  and  C15_21 
ROOT
ATOM      1  C6  UNK     1      -0.487  33.743 231.938  1.00  0.00     0.272 C 
ENDROOT
BRANCH   1   2
ATOM      2  N1  UNK     1      -1.038  34.702 230.980  1.00  0.00     0.088 N 
ATOM      3  C4  UNK     1      -1.786  35.756 231.680  1.00  0.00     0.274 C 
ATOM      4  C2  UNK     1      -2.413  36.739 230.689  1.00  0.00     0.056 C 
ATOM      5  C1  UNK     1      -1.357  37.344 229.765  1.00  0.00     0.098 C 
ATOM      6  C3  UNK     1      -0.531  36.238 229.108  1.00  0.00     0.056 C 
ATOM      7  C5  UNK     1       0.033  35.272 230.151  1.00  0.00     0.274 C 
BRANCH   5   8
ATOM      8  N2  UNK     1      -1.968  38.195 228.775  1.00  0.00    -0.293 N 
ATOM      9  C8  UNK     1      -2.998  37.818 227.904  1.00  0.00     0.066 A 
ATOM     10  C12 UNK     1      -3.307  38.919 227.108  1.00  0.00     0.063 A 
ATOM     11  C13 UNK     1      -3.664  36.617 227.764  1.00  0.00     0.032 A 
ATOM     12  N3  UNK     1      -2.478  39.980 227.474  1.00  0.00    -0.306 N 
ATOM     13  C16 UNK     1      -4.286  38.879 226.139  1.00  0.00     0.032 A 
ATOM     14  C10 UNK     1      -1.620  39.551 228.526  1.00  0.00     0.328 A 
ATOM     15  H17 UNK     1      -2.494  40.899 227.051  1.00  0.00     0.171 HD
ATOM     16  O1  UNK     1      -0.767  40.224 229.088  1.00  0.00    -0.247 OA
ATOM     17  C18 UNK     1      -4.970  37.670 225.984  1.00  0.00     0.002 A 
ATOM     18  C17 UNK     1      -4.662  36.552 226.786  1.00  0.00     0.002 A 
ENDBRANCH   5   8
ENDBRANCH   1   2
BRANCH   1  19
ATOM     19  C7  UNK     1       0.845  34.250 232.489  1.00  0.00     0.031 C 
BRANCH  19  20
ATOM     20  C9  UNK     1       1.193  33.557 233.815  1.00  0.00     0.016 C 
BRANCH  20  21
ATOM     21  C11 UNK     1       2.116  34.419 234.716  1.00  0.00     0.051 C 
BRANCH  21  22
ATOM     22  C14 UNK     1       1.381  35.523 235.466  1.00  0.00    -0.049 A 
ATOM     23  C19 UNK     1       0.141  35.249 236.005  1.00  0.00     0.011 A 
ATOM     24  C23 UNK     1      -0.531  36.260 236.691  1.00  0.00     0.043 A 
ATOM     25  C27 UNK     1       0.050  37.521 236.822  1.00  0.00     0.116 A 
ATOM     26  F1  UNK     1      -0.596  38.492 237.480  1.00  0.00    -0.206 F 
ATOM     27  C25 UNK     1       1.306  37.772 236.266  1.00  0.00     0.043 A 
ATOM     28  C21 UNK     1       1.979  36.760 235.581  1.00  0.00     0.011 A 
ENDBRANCH  21  22
BRANCH  21  29
ATOM     29  C15 UNK     1       2.974  33.585 235.664  1.00  0.00    -0.049 A 
ATOM     30  C20 UNK     1       3.309  32.300 235.297  1.00  0.00     0.011 A 
ATOM     31  C24 UNK     1       4.093  31.538 236.162  1.00  0.00     0.043 A 
ATOM     32  C28 UNK     1       4.524  32.080 237.373  1.00  0.00     0.116 A 
ATOM     33  F2  UNK     1       5.276  31.348 238.204  1.00  0.00    -0.206 F 
ATOM     34  C26 UNK     1       4.170  33.384 237.718  1.00  0.00     0.043 A 
ATOM     35  C22 UNK     1       3.384  34.146 236.853  1.00  0.00     0.011 A 
ENDBRANCH  21  29
ENDBRANCH  20  21
ENDBRANCH  19  20
ENDBRANCH   1  19
TORSDOF 7
ENDMDL
MODEL 8
REMARK VINA RESULT:      -7.2      3.190      5.255
REMARK  7 active torsions:
REMARK  status: ('A' for Active; 'I' for Inactive)
REMARK    1  A    between atoms: N1_4  and  C6_12 
REMARK    2  A    between atoms: N2_5  and  C1_7 
REMARK    3  A    between atoms: C6_12  and  C7_13 
REMARK    4  A    between atoms: C7_13  and  C9_15 
REMARK    5  A    between atoms: C9_15  and  C11_17 
REMARK    6  A    between atoms: C11_17  and  C14_20 
REMARK    7  A    between atoms: C11_17  and  C15_21 
ROOT
ATOM      1  C6  UNK     1      -3.333  35.350 231.944  1.00  0.00     0.272 C 
ENDROOT
BRANCH   1   2
ATOM      2  N1  UNK     1      -2.213  35.295 232.885  1.00  0.00     0.088 N 
ATOM      3  C4  UNK     1      -1.346  36.470 232.720  1.00  0.00     0.274 C 
ATOM      4  C2  UNK     1      -0.141  36.403 233.660  1.00  0.00     0.056 C 
ATOM      5  C1  UNK     1      -0.582  36.254 235.116  1.00  0.00     0.098 C 
ATOM      6  C3  UNK     1      -1.550  35.079 235.258  1.00  0.00     0.056 C 
ATOM      7  C5  UNK     1      -2.708  35.190 234.265  1.00  0.00     0.274 C 
BRANCH   5   8
ATOM      8  N2  UNK     1       0.558  36.096 235.984  1.00  0.00    -0.293 N 
ATOM      9  C8  UNK     1       1.498  35.060 235.911  1.00  0.00     0.066 A 
ATOM     10  C12 UNK     1       2.438  35.266 236.919  1.00  0.00     0.063 A 
ATOM     11  C13 UNK     1       1.586  33.984 235.051  1.00  0.00     0.032 A 
ATOM     12  N3  UNK     1       2.093  36.420 237.621  1.00  0.00    -0.306 N 
ATOM     13  C16 UNK     1       3.504  34.416 237.120  1.00  0.00     0.032 A 
ATOM     14  C10 UNK     1       0.907  36.967 237.052  1.00  0.00     0.328 A 
ATOM     15  H17 UNK     1       2.609  36.797 238.406  1.00  0.00     0.171 HD
ATOM     16  O1  UNK     1       0.324  37.978 237.419  1.00  0.00    -0.247 OA
ATOM     17  C18 UNK     1       3.609  33.321 236.258  1.00  0.00     0.002 A 
ATOM     18  C17 UNK     1       2.660  33.107 235.236  1.00  0.00     0.002 A 
ENDBRANCH   5   8
ENDBRANCH   1   2
BRANCH   1  19
ATOM     19  C7  UNK     1      -3.079  34.413 230.764  1.00  0.00     0.031 C 
BRANCH  19  20
ATOM     20  C9  UNK     1      -3.017  35.194 229.442  1.00  0.00     0.016 C 
BRANCH  20  21
ATOM     21  C11 UNK     1      -1.778  36.123 229.355  1.00  0.00     0.051 C 
BRANCH  21  22
ATOM     22  C14 UNK     1      -0.536  35.437 228.802  1.00  0.00    -0.049 A 
ATOM     23  C19 UNK     1       0.647  35.533 229.506  1.00  0.00     0.011 A 
ATOM     24  C23 UNK     1       1.783  34.905 229.000  1.00  0.00     0.043 A 
ATOM     25  C27 UNK     1       1.714  34.195 227.801  1.00  0.00     0.116 A 
ATOM     26  F1  UNK     1       2.806  33.591 227.315  1.00  0.00    -0.206 F 
ATOM     27  C25 UNK     1       0.505  34.112 227.108  1.00  0.00     0.043 A 
ATOM     28  C21 UNK     1      -0.633  34.741 227.616  1.00  0.00     0.011 A 
ENDBRANCH  21  22
BRANCH  21  29
ATOM     29  C15 UNK     1      -2.061  37.429 228.617  1.00  0.00    -0.049 A 
ATOM     30  C20 UNK     1      -3.129  37.480 227.748  1.00  0.00     0.011 A 
ATOM     31  C24 UNK     1      -3.389  38.673 227.074  1.00  0.00     0.043 A 
ATOM     32  C28 UNK     1      -2.574  39.785 227.286  1.00  0.00     0.116 A 
ATOM     33  F2  UNK     1      -2.823  40.931 226.638  1.00  0.00    -0.206 F 
ATOM     34  C26 UNK     1      -1.500  39.705 228.172  1.00  0.00     0.043 A 
ATOM     35  C22 UNK     1      -1.240  38.511 228.846  1.00  0.00     0.011 A 
ENDBRANCH  21  29
ENDBRANCH  20  21
ENDBRANCH  19  20
ENDBRANCH   1  19
TORSDOF 7
ENDMDL
MODEL 9
REMARK VINA RESULT:      -7.0      3.513      5.637
REMARK  7 active torsions:
REMARK  status: ('A' for Active; 'I' for Inactive)
REMARK    1  A    between atoms: N1_4  and  C6_12 
REMARK    2  A    between atoms: N2_5  and  C1_7 
REMARK    3  A    between atoms: C6_12  and  C7_13 
REMARK    4  A    between atoms: C7_13  and  C9_15 
REMARK    5  A    between atoms: C9_15  and  C11_17 
REMARK    6  A    between atoms: C11_17  and  C14_20 
REMARK    7  A    between atoms: C11_17  and  C15_21 
ROOT
ATOM      1  C6  UNK     1      -2.791  36.100 232.180  1.00  0.00     0.272 C 
ENDROOT
BRANCH   1   2
ATOM      2  N1  UNK     1      -1.586  35.967 232.999  1.00  0.00     0.088 N 
ATOM      3  C4  UNK     1      -1.847  35.104 234.160  1.00  0.00     0.274 C 
ATOM      4  C2  UNK     1      -0.612  34.997 235.056  1.00  0.00     0.056 C 
ATOM      5  C1  UNK     1       0.602  34.499 234.271  1.00  0.00     0.098 C 
ATOM      6  C3  UNK     1       0.811  35.355 233.021  1.00  0.00     0.056 C 
ATOM      7  C5  UNK     1      -0.472  35.450 232.193  1.00  0.00     0.274 C 
BRANCH   5   8
ATOM      8  N2  UNK     1       1.781  34.492 235.099  1.00  0.00    -0.293 N 
ATOM      9  C8  UNK     1       2.272  35.586 235.823  1.00  0.00     0.066 A 
ATOM     10  C12 UNK     1       3.423  35.172 236.491  1.00  0.00     0.063 A 
ATOM     11  C13 UNK     1       1.797  36.876 235.937  1.00  0.00     0.032 A 
ATOM     12  N3  UNK     1       3.656  33.830 236.189  1.00  0.00    -0.306 N 
ATOM     13  C16 UNK     1       4.154  36.017 237.297  1.00  0.00     0.032 A 
ATOM     14  C10 UNK     1       2.633  33.373 235.309  1.00  0.00     0.328 A 
ATOM     15  H17 UNK     1       4.430  33.282 236.543  1.00  0.00     0.171 HD
ATOM     16  O1  UNK     1       2.525  32.248 234.843  1.00  0.00    -0.247 OA
ATOM     17  C18 UNK     1       3.687  37.328 237.424  1.00  0.00     0.002 A 
ATOM     18  C17 UNK     1       2.523  37.753 236.751  1.00  0.00     0.002 A 
ENDBRANCH   5   8
ENDBRANCH   1   2
BRANCH   1  19
ATOM     19  C7  UNK     1      -2.635  35.317 230.877  1.00  0.00     0.031 C 
BRANCH  19  20
ATOM     20  C9  UNK     1      -2.880  36.219 229.658  1.00  0.00     0.016 C 
BRANCH  20  21
ATOM     21  C11 UNK     1      -1.592  36.938 229.178  1.00  0.00     0.051 C 
BRANCH  21  22
ATOM     22  C14 UNK     1      -0.635  36.033 228.413  1.00  0.00    -0.049 A 
ATOM     23  C19 UNK     1      -1.156  35.031 227.621  1.00  0.00     0.011 A 
ATOM     24  C23 UNK     1      -0.280  34.202 226.922  1.00  0.00     0.043 A 
ATOM     25  C27 UNK     1       1.098  34.394 227.029  1.00  0.00     0.116 A 
ATOM     26  F1  UNK     1       1.940  33.598 226.357  1.00  0.00    -0.206 F 
ATOM     27  C25 UNK     1       1.599  35.416 227.836  1.00  0.00     0.043 A 
ATOM     28  C21 UNK     1       0.722  36.245 228.536  1.00  0.00     0.011 A 
ENDBRANCH  21  22
BRANCH  21  29
ATOM     29  C15 UNK     1      -1.877  38.221 228.402  1.00  0.00    -0.049 A 
ATOM     30  C20 UNK     1      -2.888  38.218 227.466  1.00  0.00     0.011 A 
ATOM     31  C24 UNK     1      -3.149  39.390 226.758  1.00  0.00     0.043 A 
ATOM     32  C28 UNK     1      -2.394  40.536 227.003  1.00  0.00     0.116 A 
ATOM     33  F2  UNK     1      -2.644  41.662 226.321  1.00  0.00    -0.206 F 
ATOM     34  C26 UNK     1      -1.377  40.511 227.957  1.00  0.00     0.043 A 
ATOM     35  C22 UNK     1      -1.114  39.337 228.665  1.00  0.00     0.011 A 
ENDBRANCH  21  29
ENDBRANCH  20  21
ENDBRANCH  19  20
ENDBRANCH   1  19
TORSDOF 7
ENDMDL
