MODEL 1
REMARK VINA RESULT:      -6.2      0.000      0.000
REMARK  4 active torsions:
REMARK  status: ('A' for Active; 'I' for Inactive)
REMARK    1  A    between atoms: N1_3  and  C11_14 
REMARK       I    between atoms: N1_3  and  C14_17 
REMARK    2  A    between atoms: C1_4  and  C6_9 
REMARK    3  A    between atoms: C6_9  and  C11_14 
REMARK    4  A    between atoms: C14_17  and  C15_18 
ROOT
ATOM      1  O1  UNK     1      -5.373  39.543 224.716  1.00  0.00    -0.350 OA
ATOM      2  C1  UNK     1      -1.336  40.262 227.445  1.00  0.00     0.021 C 
ATOM      3  C2  UNK     1      -2.597  39.589 226.984  1.00  0.00    -0.039 A 
ATOM      4  C3  UNK     1      -0.706  39.142 228.303  1.00  0.00     0.014 C 
ATOM      5  C4  UNK     1      -1.869  38.329 228.884  1.00  0.00     0.040 C 
ATOM      6  C5  UNK     1      -2.893  38.484 227.803  1.00  0.00    -0.051 A 
ATOM      7  C7  UNK     1      -3.469  39.911 225.972  1.00  0.00    -0.016 A 
ATOM      8  C8  UNK     1      -3.429  40.972 224.944  1.00  0.00     0.068 C 
ATOM      9  C9  UNK     1      -4.597  39.122 225.769  1.00  0.00     0.075 A 
ATOM     10  C10 UNK     1      -4.028  37.699 227.605  1.00  0.00     0.010 A 
ATOM     11  C12 UNK     1      -4.859  40.860 224.416  1.00  0.00     0.180 C 
ATOM     12  C13 UNK     1      -4.893  38.017 226.557  1.00  0.00     0.038 A 
ENDROOT
BRANCH   2  13
ATOM     13  C6  UNK     1      -0.388  40.725 226.350  1.00  0.00     0.029 C 
BRANCH  13  14
ATOM     14  C11 UNK     1       0.025  42.185 226.503  1.00  0.00     0.123 C 
BRANCH  14  15
ATOM     15  N1  UNK     1       1.424  42.275 226.975  1.00  0.00    -0.361 N 
ATOM     16  C14 UNK     1       1.735  42.357 228.306  1.00  0.00     0.217 C 
ATOM     17  O2  UNK     1       0.941  42.365 229.243  1.00  0.00    -0.274 OA
ATOM     18  H16 UNK     1       2.160  42.276 226.275  1.00  0.00     0.162 HD
BRANCH  16  19
ATOM     19  C15 UNK     1       3.239  42.436 228.492  1.00  0.00     0.098 C 
ATOM     20  C16 UNK     1       3.682  41.985 229.872  1.00  0.00     0.014 C 
ENDBRANCH  16  19
ENDBRANCH  14  15
ENDBRANCH  13  14
ENDBRANCH   2  13
TORSDOF 4
ENDMDL
MODEL 2
REMARK VINA RESULT:      -6.2      8.307     11.255
REMARK  4 active torsions:
REMARK  status: ('A' for Active; 'I' for Inactive)
REMARK    1  A    between atoms: N1_3  and  C11_14 
REMARK       I    between atoms: N1_3  and  C14_17 
REMARK    2  A    between atoms: C1_4  and  C6_9 
REMARK    3  A    between atoms: C6_9  and  C11_14 
REMARK    4  A    between atoms: C14_17  and  C15_18 
ROOT
ATOM      1  O1  UNK     1       3.885  34.110 236.293  1.00  0.00    -0.350 OA
ATOM      2  C1  UNK     1      -0.719  35.854 236.461  1.00  0.00     0.021 C 
ATOM      3  C2  UNK     1       0.778  35.876 236.583  1.00  0.00    -0.039 A 
ATOM      4  C3  UNK     1      -1.032  37.367 236.461  1.00  0.00     0.014 C 
ATOM      5  C4  UNK     1       0.056  38.039 237.309  1.00  0.00     0.040 C 
ATOM      6  C5  UNK     1       1.215  37.125 237.060  1.00  0.00    -0.051 A 
ATOM      7  C7  UNK     1       1.712  34.893 236.356  1.00  0.00    -0.016 A 
ATOM      8  C8  UNK     1       1.580  33.515 235.840  1.00  0.00     0.068 C 
ATOM      9  C9  UNK     1       3.058  35.170 236.575  1.00  0.00     0.075 A 
ATOM     10  C10 UNK     1       2.563  37.399 237.288  1.00  0.00     0.010 A 
ATOM     11  C12 UNK     1       2.978  32.992 236.168  1.00  0.00     0.180 C 
ATOM     12  C13 UNK     1       3.508  36.405 237.028  1.00  0.00     0.038 A 
ENDROOT
BRANCH   2  13
ATOM     13  C6  UNK     1      -1.277  35.171 235.222  1.00  0.00     0.029 C 
BRANCH  13  14
ATOM     14  C11 UNK     1      -1.111  36.010 233.959  1.00  0.00     0.123 C 
BRANCH  14  15
ATOM     15  N1  UNK     1      -0.565  35.182 232.861  1.00  0.00    -0.361 N 
ATOM     16  C14 UNK     1       0.771  35.169 232.561  1.00  0.00     0.217 C 
ATOM     17  O2  UNK     1       1.655  35.805 233.130  1.00  0.00    -0.274 OA
ATOM     18  H16 UNK     1      -1.216  34.615 232.327  1.00  0.00     0.162 HD
BRANCH  16  19
ATOM     19  C15 UNK     1       1.041  34.233 231.397  1.00  0.00     0.098 C 
ATOM     20  C16 UNK     1       1.411  34.975 230.126  1.00  0.00     0.014 C 
ENDBRANCH  16  19
ENDBRANCH  14  15
ENDBRANCH  13  14
ENDBRANCH   2  13
TORSDOF 4
ENDMDL
MODEL 3
REMARK VINA RESULT:      -6.1     10.804     13.479
REMARK  4 active torsions:
REMARK  status: ('A' for Active; 'I' for Inactive)
REMARK    1  A    between atoms: N1_3  and  C11_14 
REMARK       I    between atoms: N1_3  and  C14_17 
REMARK    2  A    between atoms: C1_4  and  C6_9 
REMARK    3  A    between atoms: C6_9  and  C11_14 
REMARK    4  A    between atoms: C14_17  and  C15_18 
ROOT
ATOM      1  O1  UNK     1       4.623  33.875 239.881  1.00  0.00    -0.350 OA
ATOM      2  C1  UNK     1       2.805  33.004 235.387  1.00  0.00     0.021 C 
ATOM      3  C2  UNK     1       3.633  32.770 236.617  1.00  0.00    -0.039 A 
ATOM      4  C3  UNK     1       2.871  31.611 234.722  1.00  0.00     0.014 C 
ATOM      5  C4  UNK     1       4.224  31.003 235.114  1.00  0.00     0.040 C 
ATOM      6  C5  UNK     1       4.436  31.625 236.460  1.00  0.00    -0.051 A 
ATOM      7  C7  UNK     1       3.745  33.498 237.778  1.00  0.00    -0.016 A 
ATOM      8  C8  UNK     1       3.038  34.707 238.248  1.00  0.00     0.068 C 
ATOM      9  C9  UNK     1       4.622  33.068 238.769  1.00  0.00     0.075 A 
ATOM     10  C10 UNK     1       5.320  31.199 237.450  1.00  0.00     0.010 A 
ATOM     11  C12 UNK     1       3.918  35.059 239.446  1.00  0.00     0.180 C 
ATOM     12  C13 UNK     1       5.406  31.929 238.637  1.00  0.00     0.038 A 
ENDROOT
BRANCH   2  13
ATOM     13  C6  UNK     1       1.367  33.440 235.624  1.00  0.00     0.029 C 
BRANCH  13  14
ATOM     14  C11 UNK     1       1.029  34.759 234.939  1.00  0.00     0.123 C 
BRANCH  14  15
ATOM     15  N1  UNK     1       0.563  35.749 235.935  1.00  0.00    -0.361 N 
ATOM     16  C14 UNK     1       1.069  37.021 235.982  1.00  0.00     0.217 C 
ATOM     17  O2  UNK     1       1.932  37.492 235.245  1.00  0.00    -0.274 OA
ATOM     18  H16 UNK     1      -0.153  35.458 236.593  1.00  0.00     0.162 HD
BRANCH  16  19
ATOM     19  C15 UNK     1       0.408  37.810 237.096  1.00  0.00     0.098 C 
ATOM     20  C16 UNK     1      -1.031  38.174 236.780  1.00  0.00     0.014 C 
ENDBRANCH  16  19
ENDBRANCH  14  15
ENDBRANCH  13  14
ENDBRANCH   2  13
TORSDOF 4
ENDMDL
MODEL 4
REMARK VINA RESULT:      -6.1     10.824     13.117
REMARK  4 active torsions:
REMARK  status: ('A' for Active; 'I' for Inactive)
REMARK    1  A    between atoms: N1_3  and  C11_14 
REMARK       I    between atoms: N1_3  and  C14_17 
REMARK    2  A    between atoms: C1_4  and  C6_9 
REMARK    3  A    between atoms: C6_9  and  C11_14 
REMARK    4  A    between atoms: C14_17  and  C15_18 
ROOT
ATOM      1  O1  UNK     1      -1.007  35.250 236.456  1.00  0.00    -0.350 OA
ATOM      2  C1  UNK     1       3.641  35.172 238.084  1.00  0.00     0.021 C 
ATOM      3  C2  UNK     1       2.377  35.759 237.524  1.00  0.00    -0.039 A 
ATOM      4  C3  UNK     1       4.388  36.453 238.519  1.00  0.00     0.014 C 
ATOM      5  C4  UNK     1       3.949  37.564 237.557  1.00  0.00     0.040 C 
ATOM      6  C5  UNK     1       2.556  37.124 237.231  1.00  0.00    -0.051 A 
ATOM      7  C7  UNK     1       1.168  35.175 237.230  1.00  0.00    -0.016 A 
ATOM      8  C8  UNK     1       0.668  33.800 237.437  1.00  0.00     0.068 C 
ATOM      9  C9  UNK     1       0.152  35.952 236.683  1.00  0.00     0.075 A 
ATOM     10  C10 UNK     1       1.539  37.900 236.674  1.00  0.00     0.010 A 
ATOM     11  C12 UNK     1      -0.604  33.869 236.594  1.00  0.00     0.180 C 
ATOM     12  C13 UNK     1       0.306  37.305 236.407  1.00  0.00     0.038 A 
ENDROOT
BRANCH   2  13
ATOM     13  C6  UNK     1       3.470  34.206 239.245  1.00  0.00     0.029 C 
BRANCH  13  14
ATOM     14  C11 UNK     1       4.112  32.848 238.985  1.00  0.00     0.123 C 
BRANCH  14  15
ATOM     15  N1  UNK     1       3.894  32.438 237.581  1.00  0.00    -0.361 N 
ATOM     16  C14 UNK     1       4.753  31.593 236.931  1.00  0.00     0.217 C 
ATOM     17  O2  UNK     1       5.770  31.085 237.398  1.00  0.00    -0.274 OA
ATOM     18  H16 UNK     1       3.076  32.804 237.102  1.00  0.00     0.162 HD
BRANCH  16  19
ATOM     19  C15 UNK     1       4.280  31.348 235.511  1.00  0.00     0.098 C 
ATOM     20  C16 UNK     1       3.098  32.221 235.130  1.00  0.00     0.014 C 
ENDBRANCH  16  19
ENDBRANCH  14  15
ENDBRANCH  13  14
ENDBRANCH   2  13
TORSDOF 4
ENDMDL
MODEL 5
REMARK VINA RESULT:      -6.0      3.006      5.129
REMARK  4 active torsions:
REMARK  status: ('A' for Active; 'I' for Inactive)
REMARK    1  A    between atoms: N1_3  and  C11_14 
REMARK       I    between atoms: N1_3  and  C14_17 
REMARK    2  A    between atoms: C1_4  and  C6_9 
REMARK    3  A    between atoms: C6_9  and  C11_14 
REMARK    4  A    between atoms: C14_17  and  C15_18 
ROOT
ATOM      1  O1  UNK     1      -0.447  41.801 226.991  1.00  0.00    -0.350 OA
ATOM      2  C1  UNK     1      -3.389  38.111 228.404  1.00  0.00     0.021 C 
ATOM      3  C2  UNK     1      -2.850  39.191 227.510  1.00  0.00    -0.039 A 
ATOM      4  C3  UNK     1      -4.250  37.309 227.403  1.00  0.00     0.014 C 
ATOM      5  C4  UNK     1      -4.754  38.312 226.357  1.00  0.00     0.040 C 
ATOM      6  C5  UNK     1      -3.627  39.298 226.342  1.00  0.00    -0.051 A 
ATOM      7  C7  UNK     1      -1.803  40.065 227.687  1.00  0.00    -0.016 A 
ATOM      8  C8  UNK     1      -0.804  40.191 228.768  1.00  0.00     0.068 C 
ATOM      9  C9  UNK     1      -1.527  41.004 226.698  1.00  0.00     0.075 A 
ATOM     10  C10 UNK     1      -3.355  40.244 225.356  1.00  0.00     0.010 A 
ATOM     11  C12 UNK     1      -0.204  41.545 228.393  1.00  0.00     0.180 C 
ATOM     12  C13 UNK     1      -2.272  41.108 225.530  1.00  0.00     0.038 A 
ENDROOT
BRANCH   2  13
ATOM     13  C6  UNK     1      -2.353  37.227 229.080  1.00  0.00     0.029 C 
BRANCH  13  14
ATOM     14  C11 UNK     1      -1.851  36.107 228.175  1.00  0.00     0.123 C 
BRANCH  14  15
ATOM     15  N1  UNK     1      -0.680  35.439 228.785  1.00  0.00    -0.361 N 
ATOM     16  C14 UNK     1       0.594  35.908 228.607  1.00  0.00     0.217 C 
ATOM     17  O2  UNK     1       0.925  36.894 227.954  1.00  0.00    -0.274 OA
ATOM     18  H16 UNK     1      -0.848  34.611 229.348  1.00  0.00     0.162 HD
BRANCH  16  19
ATOM     19  C15 UNK     1       1.586  35.030 229.347  1.00  0.00     0.098 C 
ATOM     20  C16 UNK     1       1.266  34.903 230.825  1.00  0.00     0.014 C 
ENDBRANCH  16  19
ENDBRANCH  14  15
ENDBRANCH  13  14
ENDBRANCH   2  13
TORSDOF 4
ENDMDL
MODEL 6
REMARK VINA RESULT:      -5.8      1.309      1.615
REMARK  4 active torsions:
REMARK  status: ('A' for Active; 'I' for Inactive)
REMARK    1  A    between atoms: N1_3  and  C11_14 
REMARK       I    between atoms: N1_3  and  C14_17 
REMARK    2  A    between atoms: C1_4  and  C6_9 
REMARK    3  A    between atoms: C6_9  and  C11_14 
REMARK    4  A    between atoms: C14_17  and  C15_18 
ROOT
ATOM      1  O1  UNK     1      -5.657  38.253 223.263  1.00  0.00    -0.350 OA
ATOM      2  C1  UNK     1      -2.707  40.137 226.729  1.00  0.00     0.021 C 
ATOM      3  C2  UNK     1      -3.680  39.176 226.108  1.00  0.00    -0.039 A 
ATOM      4  C3  UNK     1      -2.205  39.305 227.931  1.00  0.00     0.014 C 
ATOM      5  C4  UNK     1      -3.367  38.395 228.348  1.00  0.00     0.040 C 
ATOM      6  C5  UNK     1      -4.049  38.182 227.033  1.00  0.00    -0.051 A 
ATOM      7  C7  UNK     1      -4.260  39.165 224.862  1.00  0.00    -0.016 A 
ATOM      8  C8  UNK     1      -4.069  40.035 223.683  1.00  0.00     0.068 C 
ATOM      9  C9  UNK     1      -5.167  38.158 224.543  1.00  0.00     0.075 A 
ATOM     10  C10 UNK     1      -4.964  37.179 226.715  1.00  0.00     0.010 A 
ATOM     11  C12 UNK     1      -5.258  39.577 222.841  1.00  0.00     0.180 C 
ATOM     12  C13 UNK     1      -5.526  37.158 225.437  1.00  0.00     0.038 A 
ENDROOT
BRANCH   2  13
ATOM     13  C6  UNK     1      -1.555  40.585 225.843  1.00  0.00     0.029 C 
BRANCH  13  14
ATOM     14  C11 UNK     1      -0.916  41.885 226.317  1.00  0.00     0.123 C 
BRANCH  14  15
ATOM     15  N1  UNK     1       0.390  41.612 226.957  1.00  0.00    -0.361 N 
ATOM     16  C14 UNK     1       0.579  41.753 228.305  1.00  0.00     0.217 C 
ATOM     17  O2  UNK     1      -0.263  42.106 229.128  1.00  0.00    -0.274 OA
ATOM     18  H16 UNK     1       1.156  41.312 226.360  1.00  0.00     0.162 HD
BRANCH  16  19
ATOM     19  C15 UNK     1       2.008  41.405 228.677  1.00  0.00     0.098 C 
ATOM     20  C16 UNK     1       2.819  40.922 227.489  1.00  0.00     0.014 C 
ENDBRANCH  16  19
ENDBRANCH  14  15
ENDBRANCH  13  14
ENDBRANCH   2  13
TORSDOF 4
ENDMDL
MODEL 7
REMARK VINA RESULT:      -5.8      8.038     10.135
REMARK  4 active torsions:
REMARK  status: ('A' for Active; 'I' for Inactive)
REMARK    1  A    between atoms: N1_3  and  C11_14 
REMARK       I    between atoms: N1_3  and  C14_17 
REMARK    2  A    between atoms: C1_4  and  C6_9 
REMARK    3  A    between atoms: C6_9  and  C11_14 
REMARK    4  A    between atoms: C14_17  and  C15_18 
ROOT
ATOM      1  O1  UNK     1       1.152  30.293 233.742  1.00  0.00    -0.350 OA
ATOM      2  C1  UNK     1       1.157  34.872 231.925  1.00  0.00     0.021 C 
ATOM      3  C2  UNK     1       0.985  33.380 231.925  1.00  0.00    -0.039 A 
ATOM      4  C3  UNK     1       0.398  35.251 230.634  1.00  0.00     0.014 C 
ATOM      5  C4  UNK     1       0.546  34.063 229.674  1.00  0.00     0.040 C 
ATOM      6  C5  UNK     1       0.630  32.925 230.642  1.00  0.00    -0.051 A 
ATOM      7  C7  UNK     1       1.163  32.455 232.927  1.00  0.00    -0.016 A 
ATOM      8  C8  UNK     1       1.502  32.612 234.357  1.00  0.00     0.068 C 
ATOM      9  C9  UNK     1       0.959  31.107 232.651  1.00  0.00     0.075 A 
ATOM     10  C10 UNK     1       0.435  31.572 230.365  1.00  0.00     0.010 A 
ATOM     11  C12 UNK     1       1.809  31.155 234.699  1.00  0.00     0.180 C 
ATOM     12  C13 UNK     1       0.590  30.643 231.395  1.00  0.00     0.038 A 
ENDROOT
BRANCH   2  13
ATOM     13  C6  UNK     1       0.601  35.608 233.133  1.00  0.00     0.029 C 
BRANCH  13  14
ATOM     14  C11 UNK     1       1.689  36.254 233.984  1.00  0.00     0.123 C 
BRANCH  14  15
ATOM     15  N1  UNK     1       1.084  37.096 235.039  1.00  0.00    -0.361 N 
ATOM     16  C14 UNK     1       1.176  36.772 236.366  1.00  0.00     0.217 C 
ATOM     17  O2  UNK     1       1.744  35.791 236.841  1.00  0.00    -0.274 OA
ATOM     18  H16 UNK     1       0.590  37.935 234.749  1.00  0.00     0.162 HD
BRANCH  16  19
ATOM     19  C15 UNK     1       0.468  37.812 237.213  1.00  0.00     0.098 C 
ATOM     20  C16 UNK     1      -0.931  38.121 236.711  1.00  0.00     0.014 C 
ENDBRANCH  16  19
ENDBRANCH  14  15
ENDBRANCH  13  14
ENDBRANCH   2  13
TORSDOF 4
ENDMDL
MODEL 8
REMARK VINA RESULT:      -5.7      9.852     12.249
REMARK  4 active torsions:
REMARK  status: ('A' for Active; 'I' for Inactive)
REMARK    1  A    between atoms: N1_3  and  C11_14 
REMARK       I    between atoms: N1_3  and  C14_17 
REMARK    2  A    between atoms: C1_4  and  C6_9 
REMARK    3  A    between atoms: C6_9  and  C11_14 
REMARK    4  A    between atoms: C14_17  and  C15_18 
ROOT
ATOM      1  O1  UNK     1      -1.358  35.805 235.071  1.00  0.00    -0.350 OA
ATOM      2  C1  UNK     1       3.460  35.420 236.022  1.00  0.00     0.021 C 
ATOM      3  C2  UNK     1       2.071  35.986 236.102  1.00  0.00    -0.039 A 
ATOM      4  C3  UNK     1       4.119  36.093 237.247  1.00  0.00     0.014 C 
ATOM      5  C4  UNK     1       3.425  37.449 237.427  1.00  0.00     0.040 C 
ATOM      6  C5  UNK     1       2.055  37.139 236.908  1.00  0.00    -0.051 A 
ATOM      7  C7  UNK     1       0.903  35.590 235.496  1.00  0.00    -0.016 A 
ATOM      8  C8  UNK     1       0.591  34.433 234.630  1.00  0.00     0.068 C 
ATOM      9  C9  UNK     1      -0.261  36.318 235.720  1.00  0.00     0.075 A 
ATOM     10  C10 UNK     1       0.890  37.873 237.126  1.00  0.00     0.010 A 
ATOM     11  C12 UNK     1      -0.791  34.859 234.137  1.00  0.00     0.180 C 
ATOM     12  C13 UNK     1      -0.297  37.447 236.529  1.00  0.00     0.038 A 
ENDROOT
BRANCH   2  13
ATOM     13  C6  UNK     1       3.567  33.905 236.096  1.00  0.00     0.029 C 
BRANCH  13  14
ATOM     14  C11 UNK     1       3.482  33.375 237.523  1.00  0.00     0.123 C 
BRANCH  14  15
ATOM     15  N1  UNK     1       2.073  33.124 237.895  1.00  0.00    -0.361 N 
ATOM     16  C14 UNK     1       1.562  31.856 237.979  1.00  0.00     0.217 C 
ATOM     17  O2  UNK     1       2.168  30.808 237.771  1.00  0.00    -0.274 OA
ATOM     18  H16 UNK     1       1.484  33.928 238.089  1.00  0.00     0.162 HD
BRANCH  16  19
ATOM     19  C15 UNK     1       0.099  31.903 238.380  1.00  0.00     0.098 C 
ATOM     20  C16 UNK     1      -0.627  33.104 237.801  1.00  0.00     0.014 C 
ENDBRANCH  16  19
ENDBRANCH  14  15
ENDBRANCH  13  14
ENDBRANCH   2  13
TORSDOF 4
ENDMDL
MODEL 9
REMARK VINA RESULT:      -5.7     10.118     11.137
REMARK  4 active torsions:
REMARK  status: ('A' for Active; 'I' for Inactive)
REMARK    1  A    between atoms: N1_3  and  C11_14 
REMARK       I    between atoms: N1_3  and  C14_17 
REMARK    2  A    between atoms: C1_4  and  C6_9 
REMARK    3  A    between atoms: C6_9  and  C11_14 
REMARK    4  A    between atoms: C14_17  and  C15_18 
ROOT
ATOM      1  O1  UNK     1      -0.352  33.198 233.998  1.00  0.00    -0.350 OA
ATOM      2  C1  UNK     1       1.056  37.467 236.012  1.00  0.00     0.021 C 
ATOM      3  C2  UNK     1       0.142  36.319 235.692  1.00  0.00    -0.039 A 
ATOM      4  C3  UNK     1       0.317  38.100 237.212  1.00  0.00     0.014 C 
ATOM      5  C4  UNK     1      -1.178  37.829 236.998  1.00  0.00     0.040 C 
ATOM      6  C5  UNK     1      -1.127  36.527 236.260  1.00  0.00    -0.051 A 
ATOM      7  C7  UNK     1       0.346  35.194 234.928  1.00  0.00    -0.016 A 
ATOM      8  C8  UNK     1       1.547  34.686 234.233  1.00  0.00     0.068 C 
ATOM      9  C9  UNK     1      -0.694  34.284 234.766  1.00  0.00     0.075 A 
ATOM     10  C10 UNK     1      -2.172  35.619 236.090  1.00  0.00     0.010 A 
ATOM     11  C12 UNK     1       0.898  33.590 233.388  1.00  0.00     0.180 C 
ATOM     12  C13 UNK     1      -1.947  34.465 235.338  1.00  0.00     0.038 A 
ENDROOT
BRANCH   2  13
ATOM     13  C6  UNK     1       2.487  37.099 236.372  1.00  0.00     0.029 C 
BRANCH  13  14
ATOM     14  C11 UNK     1       2.584  36.294 237.663  1.00  0.00     0.123 C 
BRANCH  14  15
ATOM     15  N1  UNK     1       3.420  35.092 237.457  1.00  0.00    -0.361 N 
ATOM     16  C14 UNK     1       2.891  33.830 237.480  1.00  0.00     0.217 C 
ATOM     17  O2  UNK     1       1.712  33.534 237.662  1.00  0.00    -0.274 OA
ATOM     18  H16 UNK     1       4.414  35.228 237.297  1.00  0.00     0.162 HD
BRANCH  16  19
ATOM     19  C15 UNK     1       3.977  32.798 237.239  1.00  0.00     0.098 C 
ATOM     20  C16 UNK     1       3.808  32.069 235.918  1.00  0.00     0.014 C 
ENDBRANCH  16  19
ENDBRANCH  14  15
ENDBRANCH  13  14
ENDBRANCH   2  13
TORSDOF 4
ENDMDL
