MODEL 1
REMARK VINA RESULT:      -6.1      0.000      0.000
REMARK  0 active torsions:
REMARK  status: ('A' for Active; 'I' for Inactive)
ROOT
ATOM      1  C1  UNK     1      -2.341  40.895 224.538  1.00  0.00     0.089 C 
ATOM      2  C2  UNK     1      -1.467  40.810 225.772  1.00  0.00     0.087 C 
ATOM      3  N1  UNK     1      -0.436  41.570 225.817  1.00  0.00    -0.344 N 
ATOM      4  H1  UNK     1      -0.313  42.177 225.006  1.00  0.00     0.167 HD
ATOM      5  C3  UNK     1       0.520  41.690 226.779  1.00  0.00     0.057 A 
ATOM      6  C4  UNK     1       1.711  42.385 226.521  1.00  0.00     0.033 A 
ATOM      7  C5  UNK     1       2.677  42.497 227.502  1.00  0.00     0.026 A 
ATOM      8  C6  UNK     1       2.477  41.917 228.745  1.00  0.00     0.035 A 
ATOM      9  C7  UNK     1       1.304  41.221 229.011  1.00  0.00     0.051 A 
ATOM     10  C8  UNK     1       0.345  41.109 228.036  1.00  0.00     0.108 A 
ATOM     11  S1  UNK     1      -1.175  40.245 228.308  1.00  0.00     0.266 S 
ATOM     12  O1  UNK     1      -0.837  38.969 228.813  1.00  0.00    -0.200 OA
ATOM     13  O2  UNK     1      -2.032  41.163 228.972  1.00  0.00    -0.200 OA
ATOM     14  N2  UNK     1      -1.826  39.947 226.786  1.00  0.00    -0.270 N 
ATOM     15 Cl1  UNK     1       3.701  42.060 229.968  1.00  0.00    -0.084 Cl
ATOM     16  H7  UNK     1      -2.445  39.179 226.623  1.00  0.00     0.180 HD
ENDROOT
TORSDOF 0
ENDMDL
MODEL 2
REMARK VINA RESULT:      -5.7     11.007     11.939
REMARK  0 active torsions:
REMARK  status: ('A' for Active; 'I' for Inactive)
ROOT
ATOM      1  C1  UNK     1       0.334  37.845 236.913  1.00  0.00     0.089 C 
ATOM      2  C2  UNK     1       1.333  36.710 236.985  1.00  0.00     0.087 C 
ATOM      3  N1  UNK     1       1.268  35.809 236.075  1.00  0.00    -0.344 N 
ATOM      4  H1  UNK     1       0.543  35.958 235.373  1.00  0.00     0.167 HD
ATOM      5  C3  UNK     1       2.016  34.684 235.903  1.00  0.00     0.057 A 
ATOM      6  C4  UNK     1       1.615  33.690 234.998  1.00  0.00     0.033 A 
ATOM      7  C5  UNK     1       2.377  32.551 234.834  1.00  0.00     0.026 A 
ATOM      8  C6  UNK     1       3.541  32.380 235.569  1.00  0.00     0.035 A 
ATOM      9  C7  UNK     1       3.945  33.355 236.473  1.00  0.00     0.051 A 
ATOM     10  C8  UNK     1       3.187  34.487 236.636  1.00  0.00     0.108 A 
ATOM     11  S1  UNK     1       3.647  35.771 237.762  1.00  0.00     0.266 S 
ATOM     12  O1  UNK     1       3.885  35.156 239.012  1.00  0.00    -0.200 OA
ATOM     13  O2  UNK     1       4.597  36.572 237.074  1.00  0.00    -0.200 OA
ATOM     14  N2  UNK     1       2.268  36.706 237.998  1.00  0.00    -0.270 N 
ATOM     15 Cl1  UNK     1       4.488  30.941 235.358  1.00  0.00    -0.084 Cl
ATOM     16  H7  UNK     1       2.132  37.235 238.836  1.00  0.00     0.180 HD
ENDROOT
TORSDOF 0
ENDMDL
MODEL 3
REMARK VINA RESULT:      -5.5     10.573     11.682
REMARK  0 active torsions:
REMARK  status: ('A' for Active; 'I' for Inactive)
ROOT
ATOM      1  C1  UNK     1       4.454  37.413 238.431  1.00  0.00     0.089 C 
ATOM      2  C2  UNK     1       3.739  36.633 237.347  1.00  0.00     0.087 C 
ATOM      3  N1  UNK     1       3.881  35.359 237.347  1.00  0.00    -0.344 N 
ATOM      4  H1  UNK     1       4.461  34.990 238.101  1.00  0.00     0.167 HD
ATOM      5  C3  UNK     1       3.376  34.423 236.496  1.00  0.00     0.057 A 
ATOM      6  C4  UNK     1       3.863  33.108 236.509  1.00  0.00     0.033 A 
ATOM      7  C5  UNK     1       3.349  32.168 235.639  1.00  0.00     0.026 A 
ATOM      8  C6  UNK     1       2.352  32.521 234.742  1.00  0.00     0.035 A 
ATOM      9  C7  UNK     1       1.866  33.822 234.715  1.00  0.00     0.051 A 
ATOM     10  C8  UNK     1       2.378  34.757 235.579  1.00  0.00     0.108 A 
ATOM     11  S1  UNK     1       1.800  36.429 235.605  1.00  0.00     0.266 S 
ATOM     12  O1  UNK     1       1.861  36.905 234.276  1.00  0.00    -0.200 OA
ATOM     13  O2  UNK     1       0.620  36.421 236.396  1.00  0.00    -0.200 OA
ATOM     14  N2  UNK     1       2.965  37.316 236.434  1.00  0.00    -0.270 N 
ATOM     15 Cl1  UNK     1       1.718  31.331 233.649  1.00  0.00    -0.084 Cl
ATOM     16  H7  UNK     1       3.089  38.295 236.272  1.00  0.00     0.180 HD
ENDROOT
TORSDOF 0
ENDMDL
MODEL 4
REMARK VINA RESULT:      -5.4     11.057     12.128
REMARK  0 active torsions:
REMARK  status: ('A' for Active; 'I' for Inactive)
ROOT
ATOM      1  C1  UNK     1       4.830  37.094 238.799  1.00  0.00     0.089 C 
ATOM      2  C2  UNK     1       3.571  36.388 238.341  1.00  0.00     0.087 C 
ATOM      3  N1  UNK     1       2.651  37.109 237.814  1.00  0.00    -0.344 N 
ATOM      4  H1  UNK     1       2.869  38.103 237.744  1.00  0.00     0.167 HD
ATOM      5  C3  UNK     1       1.426  36.751 237.336  1.00  0.00     0.057 A 
ATOM      6  C4  UNK     1       0.460  37.725 237.044  1.00  0.00     0.033 A 
ATOM      7  C5  UNK     1      -0.779  37.353 236.564  1.00  0.00     0.026 A 
ATOM      8  C6  UNK     1      -1.079  36.012 236.375  1.00  0.00     0.035 A 
ATOM      9  C7  UNK     1      -0.132  35.037 236.667  1.00  0.00     0.051 A 
ATOM     10  C8  UNK     1       1.100  35.408 237.144  1.00  0.00     0.108 A 
ATOM     11  S1  UNK     1       2.355  34.221 237.528  1.00  0.00     0.266 S 
ATOM     12  O1  UNK     1       1.765  33.262 238.382  1.00  0.00    -0.200 OA
ATOM     13  O2  UNK     1       2.986  33.908 236.294  1.00  0.00    -0.200 OA
ATOM     14  N2  UNK     1       3.480  35.021 238.489  1.00  0.00    -0.270 N 
ATOM     15 Cl1  UNK     1      -2.643  35.556 235.777  1.00  0.00    -0.084 Cl
ATOM     16  H7  UNK     1       4.058  34.527 239.139  1.00  0.00     0.180 HD
ENDROOT
TORSDOF 0
ENDMDL
MODEL 5
REMARK VINA RESULT:      -5.3     10.633     11.762
REMARK  0 active torsions:
REMARK  status: ('A' for Active; 'I' for Inactive)
ROOT
ATOM      1  C1  UNK     1       1.512  35.952 233.685  1.00  0.00     0.089 C 
ATOM      2  C2  UNK     1       2.101  35.511 235.008  1.00  0.00     0.087 C 
ATOM      3  N1  UNK     1       2.575  36.423 235.775  1.00  0.00    -0.344 N 
ATOM      4  H1  UNK     1       2.494  37.374 235.415  1.00  0.00     0.167 HD
ATOM      5  C3  UNK     1       3.171  36.316 236.995  1.00  0.00     0.057 A 
ATOM      6  C4  UNK     1       3.861  37.403 237.551  1.00  0.00     0.033 A 
ATOM      7  C5  UNK     1       4.465  37.284 238.787  1.00  0.00     0.026 A 
ATOM      8  C6  UNK     1       4.401  36.086 239.481  1.00  0.00     0.035 A 
ATOM      9  C7  UNK     1       3.726  34.999 238.937  1.00  0.00     0.051 A 
ATOM     10  C8  UNK     1       3.125  35.118 237.709  1.00  0.00     0.108 A 
ATOM     11  S1  UNK     1       2.243  33.779 236.962  1.00  0.00     0.266 S 
ATOM     12  O1  UNK     1       3.104  32.659 236.981  1.00  0.00    -0.200 OA
ATOM     13  O2  UNK     1       0.945  33.797 237.539  1.00  0.00    -0.200 OA
ATOM     14  N2  UNK     1       2.083  34.172 235.334  1.00  0.00    -0.270 N 
ATOM     15 Cl1  UNK     1       5.171  35.946 241.030  1.00  0.00    -0.084 Cl
ATOM     16  H7  UNK     1       1.980  33.466 234.633  1.00  0.00     0.180 HD
ENDROOT
TORSDOF 0
ENDMDL
MODEL 6
REMARK VINA RESULT:      -5.2     10.771     11.555
REMARK  0 active torsions:
REMARK  status: ('A' for Active; 'I' for Inactive)
ROOT
ATOM      1  C1  UNK     1       3.600  32.216 235.452  1.00  0.00     0.089 C 
ATOM      2  C2  UNK     1       3.063  33.557 235.907  1.00  0.00     0.087 C 
ATOM      3  N1  UNK     1       1.812  33.779 235.735  1.00  0.00    -0.344 N 
ATOM      4  H1  UNK     1       1.292  33.009 235.314  1.00  0.00     0.167 HD
ATOM      5  C3  UNK     1       1.072  34.884 236.029  1.00  0.00     0.057 A 
ATOM      6  C4  UNK     1      -0.228  35.030 235.521  1.00  0.00     0.033 A 
ATOM      7  C5  UNK     1      -0.968  36.156 235.821  1.00  0.00     0.026 A 
ATOM      8  C6  UNK     1      -0.429  37.153 236.619  1.00  0.00     0.035 A 
ATOM      9  C7  UNK     1       0.860  37.022 237.123  1.00  0.00     0.051 A 
ATOM     10  C8  UNK     1       1.596  35.903 236.826  1.00  0.00     0.108 A 
ATOM     11  S1  UNK     1       3.238  35.668 237.440  1.00  0.00     0.266 S 
ATOM     12  O1  UNK     1       3.968  36.835 237.119  1.00  0.00    -0.200 OA
ATOM     13  O2  UNK     1       3.093  35.156 238.757  1.00  0.00    -0.200 OA
ATOM     14  N2  UNK     1       3.925  34.457 236.495  1.00  0.00    -0.270 N 
ATOM     15 Cl1  UNK     1      -1.367  38.566 236.984  1.00  0.00    -0.084 Cl
ATOM     16  H7  UNK     1       4.915  34.394 236.365  1.00  0.00     0.180 HD
ENDROOT
TORSDOF 0
ENDMDL
MODEL 7
REMARK VINA RESULT:      -5.1      8.536      9.135
REMARK  0 active torsions:
REMARK  status: ('A' for Active; 'I' for Inactive)
ROOT
ATOM      1  C1  UNK     1      -3.012  35.694 232.999  1.00  0.00     0.089 C 
ATOM      2  C2  UNK     1      -1.593  35.871 233.496  1.00  0.00     0.087 C 
ATOM      3  N1  UNK     1      -1.436  36.388 234.658  1.00  0.00    -0.344 N 
ATOM      4  H1  UNK     1      -2.301  36.620 235.147  1.00  0.00     0.167 HD
ATOM      5  C3  UNK     1      -0.293  36.675 235.341  1.00  0.00     0.057 A 
ATOM      6  C4  UNK     1      -0.328  37.483 236.488  1.00  0.00     0.033 A 
ATOM      7  C5  UNK     1       0.836  37.772 237.170  1.00  0.00     0.026 A 
ATOM      8  C6  UNK     1       2.049  37.272 236.721  1.00  0.00     0.035 A 
ATOM      9  C7  UNK     1       2.098  36.476 235.583  1.00  0.00     0.051 A 
ATOM     10  C8  UNK     1       0.940  36.189 234.904  1.00  0.00     0.108 A 
ATOM     11  S1  UNK     1       0.928  35.177 233.454  1.00  0.00     0.266 S 
ATOM     12  O1  UNK     1       1.894  35.711 232.572  1.00  0.00    -0.200 OA
ATOM     13  O2  UNK     1       0.927  33.833 233.916  1.00  0.00    -0.200 OA
ATOM     14  N2  UNK     1      -0.549  35.457 232.697  1.00  0.00    -0.270 N 
ATOM     15 Cl1  UNK     1       3.508  37.648 237.584  1.00  0.00    -0.084 Cl
ATOM     16  H7  UNK     1      -0.664  35.328 231.712  1.00  0.00     0.180 HD
ENDROOT
TORSDOF 0
ENDMDL
MODEL 8
REMARK VINA RESULT:      -5.0     10.510     11.084
REMARK  0 active torsions:
REMARK  status: ('A' for Active; 'I' for Inactive)
ROOT
ATOM      1  C1  UNK     1       3.663  32.680 235.793  1.00  0.00     0.089 C 
ATOM      2  C2  UNK     1       2.378  33.469 235.927  1.00  0.00     0.087 C 
ATOM      3  N1  UNK     1       2.477  34.705 236.252  1.00  0.00    -0.344 N 
ATOM      4  H1  UNK     1       3.431  35.043 236.376  1.00  0.00     0.167 HD
ATOM      5  C3  UNK     1       1.504  35.636 236.456  1.00  0.00     0.057 A 
ATOM      6  C4  UNK     1       1.805  36.864 237.064  1.00  0.00     0.033 A 
ATOM      7  C5  UNK     1       0.810  37.799 237.271  1.00  0.00     0.026 A 
ATOM      8  C6  UNK     1      -0.493  37.527 236.886  1.00  0.00     0.035 A 
ATOM      9  C7  UNK     1      -0.805  36.311 236.288  1.00  0.00     0.051 A 
ATOM     10  C8  UNK     1       0.183  35.382 236.082  1.00  0.00     0.108 A 
ATOM     11  S1  UNK     1      -0.141  33.819 235.320  1.00  0.00     0.266 S 
ATOM     12  O1  UNK     1      -1.224  33.238 236.018  1.00  0.00    -0.200 OA
ATOM     13  O2  UNK     1      -0.133  34.059 233.919  1.00  0.00    -0.200 OA
ATOM     14  N2  UNK     1       1.178  32.838 235.677  1.00  0.00    -0.270 N 
ATOM     15 Cl1  UNK     1      -1.736  38.708 237.157  1.00  0.00    -0.084 Cl
ATOM     16  H7  UNK     1       1.096  31.842 235.708  1.00  0.00     0.180 HD
ENDROOT
TORSDOF 0
ENDMDL
MODEL 9
REMARK VINA RESULT:      -5.0     10.219     11.275
REMARK  0 active torsions:
REMARK  status: ('A' for Active; 'I' for Inactive)
ROOT
ATOM      1  C1  UNK     1       0.330  37.850 237.200  1.00  0.00     0.089 C 
ATOM      2  C2  UNK     1       0.846  36.639 236.452  1.00  0.00     0.087 C 
ATOM      3  N1  UNK     1       1.676  35.878 237.064  1.00  0.00    -0.344 N 
ATOM      4  H1  UNK     1       1.900  36.163 238.018  1.00  0.00     0.167 HD
ATOM      5  C3  UNK     1       2.306  34.748 236.636  1.00  0.00     0.057 A 
ATOM      6  C4  UNK     1       3.379  34.210 237.361  1.00  0.00     0.033 A 
ATOM      7  C5  UNK     1       4.014  33.067 236.917  1.00  0.00     0.026 A 
ATOM      8  C6  UNK     1       3.598  32.449 235.747  1.00  0.00     0.035 A 
ATOM      9  C7  UNK     1       2.540  32.977 235.016  1.00  0.00     0.051 A 
ATOM     10  C8  UNK     1       1.909  34.113 235.458  1.00  0.00     0.108 A 
ATOM     11  S1  UNK     1       0.552  34.834 234.583  1.00  0.00     0.266 S 
ATOM     12  O1  UNK     1       0.965  34.993 233.241  1.00  0.00    -0.200 OA
ATOM     13  O2  UNK     1      -0.600  34.105 234.981  1.00  0.00    -0.200 OA
ATOM     14  N2  UNK     1       0.392  36.402 235.172  1.00  0.00    -0.270 N 
ATOM     15 Cl1  UNK     1       4.408  31.017 235.196  1.00  0.00    -0.084 Cl
ATOM     16  H7  UNK     1      -0.015  37.129 234.619  1.00  0.00     0.180 HD
ENDROOT
TORSDOF 0
ENDMDL
