MODEL 1
REMARK VINA RESULT:      -6.4      0.000      0.000
REMARK  5 active torsions:
REMARK  status: ('A' for Active; 'I' for Inactive)
REMARK    1  A    between atoms: N1_1  and  C1_5 
REMARK    2  A    between atoms: N1_1  and  C3_7 
REMARK    3  A    between atoms: N1_1  and  C5_9 
REMARK    4  A    between atoms: C1_5  and  C2_6 
REMARK    5  A    between atoms: C3_7  and  C7_11 
ROOT
ATOM      1  N1  UNK     1       2.246  34.280 235.985  1.00  0.00    -0.370 N 
ENDROOT
BRANCH   1   2
ATOM      2  C1  UNK     1       3.643  34.159 236.293  1.00  0.00     0.199 C 
BRANCH   2   3
ATOM      3  C2  UNK     1       4.009  35.300 237.185  1.00  0.00     0.091 A 
ATOM      4  N2  UNK     1       4.040  35.155 238.538  1.00  0.00    -0.377 N 
ATOM      5  C4  UNK     1       4.457  36.378 239.155  1.00  0.00     0.140 A 
ATOM      6  H9  UNK     1       3.838  34.306 239.053  1.00  0.00     0.160 HD
ATOM      7  C6  UNK     1       4.622  37.290 237.929  1.00  0.00     0.140 A 
ATOM      8  N3  UNK     1       4.337  36.474 236.708  1.00  0.00    -0.377 N 
ATOM      9  H3  UNK     1       4.386  36.765 235.732  1.00  0.00     0.160 HD
ENDBRANCH   2   3
ENDBRANCH   1   2
BRANCH   1  10
ATOM     10  C3  UNK     1       1.287  34.409 237.089  1.00  0.00     0.162 C 
BRANCH  10  11
ATOM     11  C7  UNK     1       0.409  35.621 236.931  1.00  0.00    -0.040 A 
ATOM     12  C10 UNK     1       0.942  36.885 237.143  1.00  0.00     0.009 A 
ATOM     13  C14 UNK     1       0.129  38.009 236.996  1.00  0.00     0.001 A 
ATOM     14  C17 UNK     1      -1.211  37.856 236.640  1.00  0.00     0.000 A 
ATOM     15  C15 UNK     1      -1.737  36.581 236.429  1.00  0.00     0.001 A 
ATOM     16  C11 UNK     1      -0.923  35.458 236.576  1.00  0.00     0.009 A 
ENDBRANCH  10  11
ENDBRANCH   1  10
BRANCH   1  17
ATOM     17  C5  UNK     1       1.776  34.263 234.661  1.00  0.00     0.030 A 
ATOM     18  C8  UNK     1       1.785  35.432 233.898  1.00  0.00     0.029 A 
ATOM     19  C12 UNK     1       1.319  35.416 232.582  1.00  0.00     0.002 A 
ATOM     20  C16 UNK     1       0.845  34.229 232.027  1.00  0.00     0.000 A 
ATOM     21  C13 UNK     1       0.835  33.058 232.785  1.00  0.00     0.002 A 
ATOM     22  C9  UNK     1       1.300  33.075 234.100  1.00  0.00     0.029 A 
ENDBRANCH   1  17
TORSDOF 5
ENDMDL
MODEL 2
REMARK VINA RESULT:      -6.3      1.190      4.064
REMARK  5 active torsions:
REMARK  status: ('A' for Active; 'I' for Inactive)
REMARK    1  A    between atoms: N1_1  and  C1_5 
REMARK    2  A    between atoms: N1_1  and  C3_7 
REMARK    3  A    between atoms: N1_1  and  C5_9 
REMARK    4  A    between atoms: C1_5  and  C2_6 
REMARK    5  A    between atoms: C3_7  and  C7_11 
ROOT
ATOM      1  N1  UNK     1       1.528  35.911 236.239  1.00  0.00    -0.370 N 
ENDROOT
BRANCH   1   2
ATOM      2  C1  UNK     1       2.028  37.205 236.610  1.00  0.00     0.199 C 
BRANCH   2   3
ATOM      3  C2  UNK     1       3.153  36.996 237.570  1.00  0.00     0.091 A 
ATOM      4  N2  UNK     1       2.981  36.269 238.709  1.00  0.00    -0.377 N 
ATOM      5  C4  UNK     1       4.216  36.186 239.430  1.00  0.00     0.140 A 
ATOM      6  H9  UNK     1       2.125  35.815 239.005  1.00  0.00     0.160 HD
ATOM      7  C6  UNK     1       5.139  37.033 238.541  1.00  0.00     0.140 A 
ATOM      8  N3  UNK     1       4.350  37.476 237.350  1.00  0.00    -0.377 N 
ATOM      9  H3  UNK     1       4.670  38.025 236.552  1.00  0.00     0.160 HD
ENDBRANCH   2   3
ENDBRANCH   1   2
BRANCH   1  10
ATOM     10  C3  UNK     1       2.402  35.005 235.485  1.00  0.00     0.162 C 
BRANCH  10  11
ATOM     11  C7  UNK     1       1.774  34.571 234.187  1.00  0.00    -0.040 A 
ATOM     12  C10 UNK     1       1.556  35.507 233.186  1.00  0.00     0.009 A 
ATOM     13  C14 UNK     1       0.975  35.106 231.983  1.00  0.00     0.001 A 
ATOM     14  C17 UNK     1       0.618  33.771 231.794  1.00  0.00     0.000 A 
ATOM     15  C15 UNK     1       0.842  32.838 232.806  1.00  0.00     0.001 A 
ATOM     16  C11 UNK     1       1.423  33.240 234.009  1.00  0.00     0.009 A 
ENDBRANCH  10  11
ENDBRANCH   1  10
BRANCH   1  17
ATOM     17  C5  UNK     1       0.224  35.501 236.567  1.00  0.00     0.030 A 
ATOM     18  C8  UNK     1       0.016  34.291 237.232  1.00  0.00     0.029 A 
ATOM     19  C12 UNK     1      -1.278  33.884 237.558  1.00  0.00     0.002 A 
ATOM     20  C16 UNK     1      -2.367  34.686 237.221  1.00  0.00     0.000 A 
ATOM     21  C13 UNK     1      -2.164  35.895 236.557  1.00  0.00     0.002 A 
ATOM     22  C9  UNK     1      -0.870  36.303 236.230  1.00  0.00     0.029 A 
ENDBRANCH   1  17
TORSDOF 5
ENDMDL
MODEL 3
REMARK VINA RESULT:      -6.2      1.638      4.082
REMARK  5 active torsions:
REMARK  status: ('A' for Active; 'I' for Inactive)
REMARK    1  A    between atoms: N1_1  and  C1_5 
REMARK    2  A    between atoms: N1_1  and  C3_7 
REMARK    3  A    between atoms: N1_1  and  C5_9 
REMARK    4  A    between atoms: C1_5  and  C2_6 
REMARK    5  A    between atoms: C3_7  and  C7_11 
ROOT
ATOM      1  N1  UNK     1       1.496  36.564 235.765  1.00  0.00    -0.370 N 
ENDROOT
BRANCH   1   2
ATOM      2  C1  UNK     1       1.909  37.702 236.537  1.00  0.00     0.199 C 
BRANCH   2   3
ATOM      3  C2  UNK     1       3.006  37.255 237.447  1.00  0.00     0.091 A 
ATOM      4  N2  UNK     1       2.770  36.367 238.453  1.00  0.00    -0.377 N 
ATOM      5  C4  UNK     1       3.988  36.076 239.147  1.00  0.00     0.140 A 
ATOM      6  H9  UNK     1       1.881  35.935 238.671  1.00  0.00     0.160 HD
ATOM      7  C6  UNK     1       4.980  36.986 238.407  1.00  0.00     0.140 A 
ATOM      8  N3  UNK     1       4.237  37.675 237.306  1.00  0.00    -0.377 N 
ATOM      9  H3  UNK     1       4.605  38.322 236.608  1.00  0.00     0.160 HD
ENDBRANCH   2   3
ENDBRANCH   1   2
BRANCH   1  10
ATOM     10  C3  UNK     1       2.465  35.934 234.859  1.00  0.00     0.162 C 
BRANCH  10  11
ATOM     11  C7  UNK     1       2.575  34.451 235.098  1.00  0.00    -0.040 A 
ATOM     12  C10 UNK     1       1.742  33.584 234.405  1.00  0.00     0.009 A 
ATOM     13  C14 UNK     1       1.844  32.210 234.625  1.00  0.00     0.001 A 
ATOM     14  C17 UNK     1       2.777  31.718 235.537  1.00  0.00     0.000 A 
ATOM     15  C15 UNK     1       3.610  32.599 236.228  1.00  0.00     0.001 A 
ATOM     16  C11 UNK     1       3.507  33.973 236.007  1.00  0.00     0.009 A 
ENDBRANCH  10  11
ENDBRANCH   1  10
BRANCH   1  17
ATOM     17  C5  UNK     1       0.190  36.051 235.845  1.00  0.00     0.030 A 
ATOM     18  C8  UNK     1      -0.719  36.281 234.810  1.00  0.00     0.029 A 
ATOM     19  C12 UNK     1      -2.015  35.771 234.889  1.00  0.00     0.002 A 
ATOM     20  C16 UNK     1      -2.405  35.029 236.003  1.00  0.00     0.000 A 
ATOM     21  C13 UNK     1      -1.501  34.796 237.039  1.00  0.00     0.002 A 
ATOM     22  C9  UNK     1      -0.204  35.307 236.960  1.00  0.00     0.029 A 
ENDBRANCH   1  17
TORSDOF 5
ENDMDL
MODEL 4
REMARK VINA RESULT:      -6.1      1.201      4.104
REMARK  5 active torsions:
REMARK  status: ('A' for Active; 'I' for Inactive)
REMARK    1  A    between atoms: N1_1  and  C1_5 
REMARK    2  A    between atoms: N1_1  and  C3_7 
REMARK    3  A    between atoms: N1_1  and  C5_9 
REMARK    4  A    between atoms: C1_5  and  C2_6 
REMARK    5  A    between atoms: C3_7  and  C7_11 
ROOT
ATOM      1  N1  UNK     1       1.601  34.710 236.916  1.00  0.00    -0.370 N 
ENDROOT
BRANCH   1   2
ATOM      2  C1  UNK     1       1.656  33.793 238.020  1.00  0.00     0.199 C 
BRANCH   2   3
ATOM      3  C2  UNK     1       2.931  34.047 238.755  1.00  0.00     0.091 A 
ATOM      4  N2  UNK     1       3.271  35.301 239.163  1.00  0.00    -0.377 N 
ATOM      5  C4  UNK     1       4.512  35.266 239.876  1.00  0.00     0.140 A 
ATOM      6  H9  UNK     1       2.724  36.143 239.026  1.00  0.00     0.160 HD
ATOM      7  C6  UNK     1       4.873  33.777 239.777  1.00  0.00     0.140 A 
ATOM      8  N3  UNK     1       3.760  33.081 239.058  1.00  0.00    -0.377 N 
ATOM      9  H3  UNK     1       3.668  32.086 238.853  1.00  0.00     0.160 HD
ENDBRANCH   2   3
ENDBRANCH   1   2
BRANCH   1  10
ATOM     10  C3  UNK     1       2.580  34.572 235.832  1.00  0.00     0.162 C 
BRANCH  10  11
ATOM     11  C7  UNK     1       1.918  34.311 234.506  1.00  0.00    -0.040 A 
ATOM     12  C10 UNK     1       1.736  35.360 233.615  1.00  0.00     0.009 A 
ATOM     13  C14 UNK     1       1.122  35.119 232.385  1.00  0.00     0.001 A 
ATOM     14  C17 UNK     1       0.695  33.832 232.061  1.00  0.00     0.000 A 
ATOM     15  C15 UNK     1       0.883  32.785 232.964  1.00  0.00     0.001 A 
ATOM     16  C11 UNK     1       1.497  33.027 234.193  1.00  0.00     0.009 A 
ENDBRANCH  10  11
ENDBRANCH   1  10
BRANCH   1  17
ATOM     17  C5  UNK     1       0.646  35.740 236.858  1.00  0.00     0.030 A 
ATOM     18  C8  UNK     1       1.036  37.069 237.035  1.00  0.00     0.029 A 
ATOM     19  C12 UNK     1       0.088  38.092 236.975  1.00  0.00     0.002 A 
ATOM     20  C16 UNK     1      -1.251  37.787 236.739  1.00  0.00     0.000 A 
ATOM     21  C13 UNK     1      -1.645  36.461 236.562  1.00  0.00     0.002 A 
ATOM     22  C9  UNK     1      -0.698  35.438 236.621  1.00  0.00     0.029 A 
ENDBRANCH   1  17
TORSDOF 5
ENDMDL
MODEL 5
REMARK VINA RESULT:      -5.9      2.214      3.527
REMARK  5 active torsions:
REMARK  status: ('A' for Active; 'I' for Inactive)
REMARK    1  A    between atoms: N1_1  and  C1_5 
REMARK    2  A    between atoms: N1_1  and  C3_7 
REMARK    3  A    between atoms: N1_1  and  C5_9 
REMARK    4  A    between atoms: C1_5  and  C2_6 
REMARK    5  A    between atoms: C3_7  and  C7_11 
ROOT
ATOM      1  N1  UNK     1       3.519  33.988 237.519  1.00  0.00    -0.370 N 
ENDROOT
BRANCH   1   2
ATOM      2  C1  UNK     1       3.040  33.988 238.873  1.00  0.00     0.199 C 
BRANCH   2   3
ATOM      3  C2  UNK     1       4.093  34.620 239.723  1.00  0.00     0.091 A 
ATOM      4  N2  UNK     1       3.988  35.916 240.128  1.00  0.00    -0.377 N 
ATOM      5  C4  UNK     1       5.100  36.263 240.961  1.00  0.00     0.140 A 
ATOM      6  H9  UNK     1       3.227  36.549 239.914  1.00  0.00     0.160 HD
ATOM      7  C6  UNK     1       5.908  34.956 240.940  1.00  0.00     0.140 A 
ATOM      8  N3  UNK     1       5.142  33.955 240.135  1.00  0.00    -0.377 N 
ATOM      9  H3  UNK     1       5.382  32.981 239.950  1.00  0.00     0.160 HD
ENDBRANCH   2   3
ENDBRANCH   1   2
BRANCH   1  10
ATOM     10  C3  UNK     1       3.562  35.258 236.784  1.00  0.00     0.162 C 
BRANCH  10  11
ATOM     11  C7  UNK     1       2.215  35.928 236.741  1.00  0.00    -0.040 A 
ATOM     12  C10 UNK     1       2.063  37.193 237.292  1.00  0.00     0.009 A 
ATOM     13  C14 UNK     1       0.815  37.815 237.252  1.00  0.00     0.001 A 
ATOM     14  C17 UNK     1      -0.269  37.164 236.661  1.00  0.00     0.000 A 
ATOM     15  C15 UNK     1      -0.104  35.893 236.110  1.00  0.00     0.001 A 
ATOM     16  C11 UNK     1       1.144  35.272 236.151  1.00  0.00     0.009 A 
ENDBRANCH  10  11
ENDBRANCH   1  10
BRANCH   1  17
ATOM     17  C5  UNK     1       3.930  32.806 236.880  1.00  0.00     0.030 A 
ATOM     18  C8  UNK     1       4.752  31.896 237.550  1.00  0.00     0.029 A 
ATOM     19  C12 UNK     1       5.160  30.721 236.916  1.00  0.00     0.002 A 
ATOM     20  C16 UNK     1       4.747  30.454 235.612  1.00  0.00     0.000 A 
ATOM     21  C13 UNK     1       3.926  31.359 234.940  1.00  0.00     0.002 A 
ATOM     22  C9  UNK     1       3.518  32.534 235.573  1.00  0.00     0.029 A 
ENDBRANCH   1  17
TORSDOF 5
ENDMDL
MODEL 6
REMARK VINA RESULT:      -5.7      1.732      2.875
REMARK  5 active torsions:
REMARK  status: ('A' for Active; 'I' for Inactive)
REMARK    1  A    between atoms: N1_1  and  C1_5 
REMARK    2  A    between atoms: N1_1  and  C3_7 
REMARK    3  A    between atoms: N1_1  and  C5_9 
REMARK    4  A    between atoms: C1_5  and  C2_6 
REMARK    5  A    between atoms: C3_7  and  C7_11 
ROOT
ATOM      1  N1  UNK     1       2.026  33.975 235.601  1.00  0.00    -0.370 N 
ENDROOT
BRANCH   1   2
ATOM      2  C1  UNK     1       3.416  33.869 235.944  1.00  0.00     0.199 C 
BRANCH   2   3
ATOM      3  C2  UNK     1       3.707  32.428 236.206  1.00  0.00     0.091 A 
ATOM      4  N2  UNK     1       3.520  31.884 237.441  1.00  0.00    -0.377 N 
ATOM      5  C4  UNK     1       3.832  30.487 237.415  1.00  0.00     0.140 A 
ATOM      6  H9  UNK     1       3.176  32.369 238.261  1.00  0.00     0.160 HD
ATOM      7  C6  UNK     1       4.284  30.308 235.958  1.00  0.00     0.140 A 
ATOM      8  N3  UNK     1       4.129  31.625 235.264  1.00  0.00    -0.377 N 
ATOM      9  H3  UNK     1       4.310  31.844 234.284  1.00  0.00     0.160 HD
ENDBRANCH   2   3
ENDBRANCH   1   2
BRANCH   1  10
ATOM     10  C3  UNK     1       1.039  34.099 236.681  1.00  0.00     0.162 C 
BRANCH  10  11
ATOM     11  C7  UNK     1       0.447  35.482 236.746  1.00  0.00    -0.040 A 
ATOM     12  C10 UNK     1       1.252  36.554 237.103  1.00  0.00     0.009 A 
ATOM     13  C14 UNK     1       0.705  37.835 237.164  1.00  0.00     0.001 A 
ATOM     14  C17 UNK     1      -0.643  38.031 236.865  1.00  0.00     0.000 A 
ATOM     15  C15 UNK     1      -1.444  36.947 236.506  1.00  0.00     0.001 A 
ATOM     16  C11 UNK     1      -0.895  35.665 236.447  1.00  0.00     0.009 A 
ENDBRANCH  10  11
ENDBRANCH   1  10
BRANCH   1  17
ATOM     17  C5  UNK     1       1.589  33.949 234.266  1.00  0.00     0.030 A 
ATOM     18  C8  UNK     1       1.138  32.755 233.699  1.00  0.00     0.029 A 
ATOM     19  C12 UNK     1       0.703  32.729 232.373  1.00  0.00     0.002 A 
ATOM     20  C16 UNK     1       0.719  33.896 231.611  1.00  0.00     0.000 A 
ATOM     21  C13 UNK     1       1.168  35.091 232.174  1.00  0.00     0.002 A 
ATOM     22  C9  UNK     1       1.603  35.117 233.500  1.00  0.00     0.029 A 
ENDBRANCH   1  17
TORSDOF 5
ENDMDL
MODEL 7
REMARK VINA RESULT:      -5.7      1.910      4.862
REMARK  5 active torsions:
REMARK  status: ('A' for Active; 'I' for Inactive)
REMARK    1  A    between atoms: N1_1  and  C1_5 
REMARK    2  A    between atoms: N1_1  and  C3_7 
REMARK    3  A    between atoms: N1_1  and  C5_9 
REMARK    4  A    between atoms: C1_5  and  C2_6 
REMARK    5  A    between atoms: C3_7  and  C7_11 
ROOT
ATOM      1  N1  UNK     1       1.765  34.221 235.424  1.00  0.00    -0.370 N 
ENDROOT
BRANCH   1   2
ATOM      2  C1  UNK     1       0.764  34.210 236.453  1.00  0.00     0.199 C 
BRANCH   2   3
ATOM      3  C2  UNK     1       0.226  35.598 236.574  1.00  0.00     0.091 A 
ATOM      4  N2  UNK     1       0.993  36.612 237.063  1.00  0.00    -0.377 N 
ATOM      5  C4  UNK     1       0.259  37.841 237.036  1.00  0.00     0.140 A 
ATOM      6  H9  UNK     1       1.955  36.538 237.372  1.00  0.00     0.160 HD
ATOM      7  C6  UNK     1      -1.096  37.369 236.488  1.00  0.00     0.140 A 
ATOM      8  N3  UNK     1      -0.989  35.906 236.195  1.00  0.00    -0.377 N 
ATOM      9  H3  UNK     1      -1.697  35.291 235.793  1.00  0.00     0.160 HD
ENDBRANCH   2   3
ENDBRANCH   1   2
BRANCH   1  10
ATOM     10  C3  UNK     1       3.172  34.384 235.808  1.00  0.00     0.162 C 
BRANCH  10  11
ATOM     11  C7  UNK     1       3.783  33.086 236.267  1.00  0.00    -0.040 A 
ATOM     12  C10 UNK     1       3.970  32.058 235.353  1.00  0.00     0.009 A 
ATOM     13  C14 UNK     1       4.536  30.856 235.777  1.00  0.00     0.001 A 
ATOM     14  C17 UNK     1       4.908  30.694 237.112  1.00  0.00     0.000 A 
ATOM     15  C15 UNK     1       4.716  31.734 238.022  1.00  0.00     0.001 A 
ATOM     16  C11 UNK     1       4.150  32.936 237.596  1.00  0.00     0.009 A 
ENDBRANCH  10  11
ENDBRANCH   1  10
BRANCH   1  17
ATOM     17  C5  UNK     1       1.430  34.095 234.065  1.00  0.00     0.030 A 
ATOM     18  C8  UNK     1       1.032  32.858 233.553  1.00  0.00     0.029 A 
ATOM     19  C12 UNK     1       0.698  32.732 232.204  1.00  0.00     0.002 A 
ATOM     20  C16 UNK     1       0.761  33.843 231.364  1.00  0.00     0.000 A 
ATOM     21  C13 UNK     1       1.157  35.080 231.872  1.00  0.00     0.002 A 
ATOM     22  C9  UNK     1       1.491  35.206 233.221  1.00  0.00     0.029 A 
ENDBRANCH   1  17
TORSDOF 5
ENDMDL
MODEL 8
REMARK VINA RESULT:      -5.6      1.982      3.204
REMARK  5 active torsions:
REMARK  status: ('A' for Active; 'I' for Inactive)
REMARK    1  A    between atoms: N1_1  and  C1_5 
REMARK    2  A    between atoms: N1_1  and  C3_7 
REMARK    3  A    between atoms: N1_1  and  C5_9 
REMARK    4  A    between atoms: C1_5  and  C2_6 
REMARK    5  A    between atoms: C3_7  and  C7_11 
ROOT
ATOM      1  N1  UNK     1       1.332  34.432 233.927  1.00  0.00    -0.370 N 
ENDROOT
BRANCH   1   2
ATOM      2  C1  UNK     1       0.992  33.530 234.991  1.00  0.00     0.199 C 
BRANCH   2   3
ATOM      3  C2  UNK     1       2.268  32.990 235.549  1.00  0.00     0.091 A 
ATOM      4  N2  UNK     1       2.807  33.493 236.694  1.00  0.00    -0.377 N 
ATOM      5  C4  UNK     1       4.000  32.777 237.032  1.00  0.00     0.140 A 
ATOM      6  H9  UNK     1       2.418  34.238 237.260  1.00  0.00     0.160 HD
ATOM      7  C6  UNK     1       4.101  31.792 235.857  1.00  0.00     0.140 A 
ATOM      8  N3  UNK     1       2.908  32.000 234.979  1.00  0.00    -0.377 N 
ATOM      9  H3  UNK     1       2.652  31.489 234.134  1.00  0.00     0.160 HD
ENDBRANCH   2   3
ENDBRANCH   1   2
BRANCH   1  10
ATOM     10  C3  UNK     1       1.891  35.746 234.265  1.00  0.00     0.162 C 
BRANCH  10  11
ATOM     11  C7  UNK     1       1.013  36.500 235.228  1.00  0.00    -0.040 A 
ATOM     12  C10 UNK     1      -0.359  36.528 235.024  1.00  0.00     0.009 A 
ATOM     13  C14 UNK     1      -1.174  37.226 235.915  1.00  0.00     0.001 A 
ATOM     14  C17 UNK     1      -0.606  37.890 237.003  1.00  0.00     0.000 A 
ATOM     15  C15 UNK     1       0.775  37.855 237.200  1.00  0.00     0.001 A 
ATOM     16  C11 UNK     1       1.588  37.156 236.307  1.00  0.00     0.009 A 
ENDBRANCH  10  11
ENDBRANCH   1  10
BRANCH   1  17
ATOM     17  C5  UNK     1       1.128  34.094 232.578  1.00  0.00     0.030 A 
ATOM     18  C8  UNK     1       0.705  32.809 232.233  1.00  0.00     0.029 A 
ATOM     19  C12 UNK     1       0.502  32.473 230.894  1.00  0.00     0.002 A 
ATOM     20  C16 UNK     1       0.721  33.422 229.897  1.00  0.00     0.000 A 
ATOM     21  C13 UNK     1       1.143  34.707 230.237  1.00  0.00     0.002 A 
ATOM     22  C9  UNK     1       1.347  35.043 231.576  1.00  0.00     0.029 A 
ENDBRANCH   1  17
TORSDOF 5
ENDMDL
MODEL 9
REMARK VINA RESULT:      -5.6      2.050      5.024
REMARK  5 active torsions:
REMARK  status: ('A' for Active; 'I' for Inactive)
REMARK    1  A    between atoms: N1_1  and  C1_5 
REMARK    2  A    between atoms: N1_1  and  C3_7 
REMARK    3  A    between atoms: N1_1  and  C5_9 
REMARK    4  A    between atoms: C1_5  and  C2_6 
REMARK    5  A    between atoms: C3_7  and  C7_11 
ROOT
ATOM      1  N1  UNK     1       0.661  34.163 236.222  1.00  0.00    -0.370 N 
ENDROOT
BRANCH   1   2
ATOM      2  C1  UNK     1      -0.052  33.055 236.793  1.00  0.00     0.199 C 
BRANCH   2   3
ATOM      3  C2  UNK     1       0.852  32.399 237.784  1.00  0.00     0.091 A 
ATOM      4  N2  UNK     1       1.259  31.109 237.621  1.00  0.00    -0.377 N 
ATOM      5  C4  UNK     1       2.148  30.736 238.680  1.00  0.00     0.140 A 
ATOM      6  H9  UNK     1       1.012  30.497 236.852  1.00  0.00     0.160 HD
ATOM      7  C6  UNK     1       2.158  32.018 239.527  1.00  0.00     0.140 A 
ATOM      8  N3  UNK     1       1.311  33.035 238.831  1.00  0.00    -0.377 N 
ATOM      9  H3  UNK     1       1.132  34.000 239.109  1.00  0.00     0.160 HD
ENDBRANCH   2   3
ENDBRANCH   1   2
BRANCH   1  10
ATOM     10  C3  UNK     1       1.819  33.890 235.363  1.00  0.00     0.162 C 
BRANCH  10  11
ATOM     11  C7  UNK     1       1.440  33.845 233.906  1.00  0.00    -0.040 A 
ATOM     12  C10 UNK     1       1.121  32.628 233.321  1.00  0.00     0.009 A 
ATOM     13  C14 UNK     1       0.769  32.584 231.972  1.00  0.00     0.001 A 
ATOM     14  C17 UNK     1       0.740  33.760 231.222  1.00  0.00     0.000 A 
ATOM     15  C15 UNK     1       1.062  34.978 231.821  1.00  0.00     0.001 A 
ATOM     16  C11 UNK     1       1.414  35.020 233.170  1.00  0.00     0.009 A 
ENDBRANCH  10  11
ENDBRANCH   1  10
BRANCH   1  17
ATOM     17  C5  UNK     1       0.288  35.493 236.477  1.00  0.00     0.030 A 
ATOM     18  C8  UNK     1       1.228  36.405 236.963  1.00  0.00     0.029 A 
ATOM     19  C12 UNK     1       0.858  37.727 237.214  1.00  0.00     0.002 A 
ATOM     20  C16 UNK     1      -0.453  38.140 236.982  1.00  0.00     0.000 A 
ATOM     21  C13 UNK     1      -1.395  37.233 236.496  1.00  0.00     0.002 A 
ATOM     22  C9  UNK     1      -1.025  35.911 236.245  1.00  0.00     0.029 A 
ENDBRANCH   1  17
TORSDOF 5
ENDMDL
