MODEL 1
REMARK VINA RESULT:      -6.6      0.000      0.000
REMARK  10 active torsions:
REMARK  status: ('A' for Active; 'I' for Inactive)
REMARK    1  A    between atoms: S1_1  and  N2_8 
REMARK    2  A    between atoms: S1_1  and  C5_13 
REMARK    3  A    between atoms: O1_2  and  C4_12 
REMARK    4  A    between atoms: O1_2  and  C11_19 
REMARK    5  A    between atoms: O4_5  and  C12_20 
REMARK    6  A    between atoms: N1_7  and  C1_9 
REMARK    7  A    between atoms: N1_7  and  C3_11 
REMARK    8  A    between atoms: C1_9  and  C2_10 
REMARK    9  A    between atoms: C2_10  and  C6_14 
REMARK   10  A    between atoms: C8_16  and  C12_20 
ROOT
ATOM      1  C3  UNK     1       2.436  34.468 235.809  1.00  0.00     0.065 A 
ATOM      2  C4  UNK     1       1.118  34.924 235.608  1.00  0.00     0.125 A 
ATOM      3  C5  UNK     1       0.684  36.127 236.162  1.00  0.00     0.116 A 
ATOM      4  C7  UNK     1       3.302  35.262 236.586  1.00  0.00     0.050 A 
ATOM      5  C8  UNK     1       2.867  36.466 237.140  1.00  0.00     0.041 A 
ATOM      6  C9  UNK     1       1.558  36.898 236.928  1.00  0.00     0.046 A 
ENDROOT
BRANCH   2   7
ATOM      7  O1  UNK     1       0.265  34.167 234.859  1.00  0.00    -0.307 OA
BRANCH   7   8
ATOM      8  C11 UNK     1       0.527  34.057 233.505  1.00  0.00     0.076 A 
ATOM      9  C13 UNK     1       1.019  35.155 232.821  1.00  0.00     0.037 A 
ATOM     10  C15 UNK     1       1.283  35.043 231.455  1.00  0.00     0.003 A 
ATOM     11  C17 UNK     1       1.050  33.836 230.797  1.00  0.00     0.000 A 
ATOM     12  C16 UNK     1       0.553  32.741 231.503  1.00  0.00     0.003 A 
ATOM     13  C14 UNK     1       0.290  32.851 232.868  1.00  0.00     0.037 A 
ENDBRANCH   7   8
ENDBRANCH   2   7
BRANCH   1  14
ATOM     14  N1  UNK     1       2.883  33.274 235.265  1.00  0.00    -0.388 N 
ATOM     15  H5  UNK     1       2.931  33.201 234.257  1.00  0.00     0.159 HD
BRANCH  14  16
ATOM     16  C1  UNK     1       3.216  32.110 236.051  1.00  0.00     0.120 C 
BRANCH  16  17
ATOM     17  C2  UNK     1       4.155  31.186 235.279  1.00  0.00     0.019 C 
BRANCH  17  18
ATOM     18  C6  UNK     1       5.090  30.394 236.196  1.00  0.00    -0.003 C 
ATOM     19  C10 UNK     1       5.372  31.149 237.486  1.00  0.00     0.005 C 
ENDBRANCH  17  18
ENDBRANCH  16  17
ENDBRANCH  14  16
ENDBRANCH   1  14
BRANCH   3  20
ATOM     20  S1  UNK     1      -0.952  36.694 235.911  1.00  0.00     0.259 S 
ATOM     21  O2  UNK     1      -1.180  36.813 234.479  1.00  0.00    -0.201 OA
ATOM     22  O3  UNK     1      -1.848  35.885 236.725  1.00  0.00    -0.201 OA
BRANCH  20  23
ATOM     23  N2  UNK     1      -0.857  38.260 236.589  1.00  0.00    -0.324 N 
ATOM     24  H13 UNK     1      -0.571  39.030 235.972  1.00  0.00     0.169 HD
ATOM     25  H14 UNK     1      -0.502  38.342 237.549  1.00  0.00     0.169 HD
ENDBRANCH  20  23
ENDBRANCH   3  20
BRANCH   5  26
ATOM     26  C12 UNK     1       3.779  37.269 237.939  1.00  0.00     0.176 C 
ATOM     27  O5  UNK     1       3.718  37.415 239.165  1.00  0.00    -0.646 OA
BRANCH  26  28
ATOM     28  O4  UNK     1       4.742  37.869 237.187  1.00  0.00    -0.773 OA
ATOM     29  H20 UNK     1       4.451  38.004 236.261  1.00  0.00     0.167 HD
ENDBRANCH  26  28
ENDBRANCH   5  26
TORSDOF 10
ENDMDL
MODEL 2
REMARK VINA RESULT:      -6.4      3.217      5.505
REMARK  10 active torsions:
REMARK  status: ('A' for Active; 'I' for Inactive)
REMARK    1  A    between atoms: S1_1  and  N2_8 
REMARK    2  A    between atoms: S1_1  and  C5_13 
REMARK    3  A    between atoms: O1_2  and  C4_12 
REMARK    4  A    between atoms: O1_2  and  C11_19 
REMARK    5  A    between atoms: O4_5  and  C12_20 
REMARK    6  A    between atoms: N1_7  and  C1_9 
REMARK    7  A    between atoms: N1_7  and  C3_11 
REMARK    8  A    between atoms: C1_9  and  C2_10 
REMARK    9  A    between atoms: C2_10  and  C6_14 
REMARK   10  A    between atoms: C8_16  and  C12_20 
ROOT
ATOM      1  C3  UNK     1       3.307  35.570 237.209  1.00  0.00     0.065 A 
ATOM      2  C4  UNK     1       3.036  34.189 237.158  1.00  0.00     0.125 A 
ATOM      3  C5  UNK     1       3.503  33.330 238.152  1.00  0.00     0.116 A 
ATOM      4  C7  UNK     1       4.062  36.059 238.292  1.00  0.00     0.050 A 
ATOM      5  C8  UNK     1       4.530  35.200 239.286  1.00  0.00     0.041 A 
ATOM      6  C9  UNK     1       4.250  33.835 239.215  1.00  0.00     0.046 A 
ENDROOT
BRANCH   2   7
ATOM      7  O1  UNK     1       2.306  33.697 236.115  1.00  0.00    -0.307 OA
BRANCH   7   8
ATOM      8  C11 UNK     1       0.968  34.044 236.050  1.00  0.00     0.076 A 
ATOM      9  C13 UNK     1       0.212  34.037 237.210  1.00  0.00     0.037 A 
ATOM     10  C15 UNK     1      -1.137  34.386 237.143  1.00  0.00     0.003 A 
ATOM     11  C17 UNK     1      -1.708  34.735 235.920  1.00  0.00     0.000 A 
ATOM     12  C16 UNK     1      -0.931  34.736 234.762  1.00  0.00     0.003 A 
ATOM     13  C14 UNK     1       0.419  34.388 234.827  1.00  0.00     0.037 A 
ENDBRANCH   7   8
ENDBRANCH   2   7
BRANCH   1  14
ATOM     14  N1  UNK     1       2.850  36.437 236.229  1.00  0.00    -0.388 N 
ATOM     15  H5  UNK     1       2.967  36.163 235.261  1.00  0.00     0.159 HD
BRANCH  14  16
ATOM     16  C1  UNK     1       2.281  37.734 236.507  1.00  0.00     0.120 C 
BRANCH  16  17
ATOM     17  C2  UNK     1       0.948  37.595 237.239  1.00  0.00     0.019 C 
BRANCH  17  18
ATOM     18  C6  UNK     1      -0.242  38.042 236.387  1.00  0.00    -0.003 C 
ATOM     19  C10 UNK     1      -1.457  38.348 237.249  1.00  0.00     0.005 C 
ENDBRANCH  17  18
ENDBRANCH  16  17
ENDBRANCH  14  16
ENDBRANCH   1  14
BRANCH   3  20
ATOM     20  S1  UNK     1       3.166  31.614 238.089  1.00  0.00     0.259 S 
ATOM     21  O2  UNK     1       4.076  30.936 238.999  1.00  0.00    -0.201 OA
ATOM     22  O3  UNK     1       1.729  31.424 238.222  1.00  0.00    -0.201 OA
BRANCH  20  23
ATOM     23  N2  UNK     1       3.621  31.256 236.482  1.00  0.00    -0.324 N 
ATOM     24  H13 UNK     1       2.871  31.097 235.798  1.00  0.00     0.169 HD
ATOM     25  H14 UNK     1       4.445  30.659 236.341  1.00  0.00     0.169 HD
ENDBRANCH  20  23
ENDBRANCH   3  20
BRANCH   5  26
ATOM     26  C12 UNK     1       5.309  35.727 240.395  1.00  0.00     0.176 C 
ATOM     27  O5  UNK     1       6.543  35.755 240.453  1.00  0.00    -0.646 OA
BRANCH  26  28
ATOM     28  O4  UNK     1       4.527  36.204 241.402  1.00  0.00    -0.773 OA
ATOM     29  H20 UNK     1       3.655  36.509 241.074  1.00  0.00     0.167 HD
ENDBRANCH  26  28
ENDBRANCH   5  26
TORSDOF 10
ENDMDL
MODEL 3
REMARK VINA RESULT:      -6.3      3.073      5.514
REMARK  10 active torsions:
REMARK  status: ('A' for Active; 'I' for Inactive)
REMARK    1  A    between atoms: S1_1  and  N2_8 
REMARK    2  A    between atoms: S1_1  and  C5_13 
REMARK    3  A    between atoms: O1_2  and  C4_12 
REMARK    4  A    between atoms: O1_2  and  C11_19 
REMARK    5  A    between atoms: O4_5  and  C12_20 
REMARK    6  A    between atoms: N1_7  and  C1_9 
REMARK    7  A    between atoms: N1_7  and  C3_11 
REMARK    8  A    between atoms: C1_9  and  C2_10 
REMARK    9  A    between atoms: C2_10  and  C6_14 
REMARK   10  A    between atoms: C8_16  and  C12_20 
ROOT
ATOM      1  C3  UNK     1       3.003  34.088 235.775  1.00  0.00     0.065 A 
ATOM      2  C4  UNK     1       2.014  33.595 234.902  1.00  0.00     0.125 A 
ATOM      3  C5  UNK     1       1.979  32.246 234.548  1.00  0.00     0.116 A 
ATOM      4  C7  UNK     1       3.956  33.182 236.278  1.00  0.00     0.050 A 
ATOM      5  C8  UNK     1       3.922  31.834 235.923  1.00  0.00     0.041 A 
ATOM      6  C9  UNK     1       2.933  31.366 235.057  1.00  0.00     0.046 A 
ENDROOT
BRANCH   2   7
ATOM      7  O1  UNK     1       1.082  34.458 234.404  1.00  0.00    -0.307 OA
BRANCH   7   8
ATOM      8  C11 UNK     1      -0.069  34.655 235.145  1.00  0.00     0.076 A 
ATOM      9  C13 UNK     1      -1.132  35.332 234.573  1.00  0.00     0.037 A 
ATOM     10  C15 UNK     1      -2.293  35.532 235.321  1.00  0.00     0.003 A 
ATOM     11  C17 UNK     1      -2.371  35.053 236.629  1.00  0.00     0.000 A 
ATOM     12  C16 UNK     1      -1.289  34.375 237.189  1.00  0.00     0.003 A 
ATOM     13  C14 UNK     1      -0.128  34.173 236.441  1.00  0.00     0.037 A 
ENDBRANCH   7   8
ENDBRANCH   2   7
BRANCH   1  14
ATOM     14  N1  UNK     1       3.051  35.425 236.137  1.00  0.00    -0.388 N 
ATOM     15  H5  UNK     1       3.414  36.087 235.462  1.00  0.00     0.159 HD
BRANCH  14  16
ATOM     16  C1  UNK     1       2.679  35.916 237.442  1.00  0.00     0.120 C 
BRANCH  16  17
ATOM     17  C2  UNK     1       2.459  37.427 237.409  1.00  0.00     0.019 C 
BRANCH  17  18
ATOM     18  C6  UNK     1       1.374  37.843 236.413  1.00  0.00    -0.003 C 
ATOM     19  C10 UNK     1       0.011  37.932 237.082  1.00  0.00     0.005 C 
ENDBRANCH  17  18
ENDBRANCH  16  17
ENDBRANCH  14  16
ENDBRANCH   1  14
BRANCH   3  20
ATOM     20  S1  UNK     1       0.749  31.633 233.464  1.00  0.00     0.259 S 
ATOM     21  O2  UNK     1       1.191  30.344 232.955  1.00  0.00    -0.201 OA
ATOM     22  O3  UNK     1      -0.543  31.749 234.125  1.00  0.00    -0.201 OA
BRANCH  20  23
ATOM     23  N2  UNK     1       0.828  32.783 232.204  1.00  0.00    -0.324 N 
ATOM     24  H13 UNK     1       0.961  32.434 231.247  1.00  0.00     0.169 HD
ATOM     25  H14 UNK     1       1.316  33.667 232.396  1.00  0.00     0.169 HD
ENDBRANCH  20  23
ENDBRANCH   3  20
BRANCH   5  26
ATOM     26  C12 UNK     1       4.917  30.916 236.455  1.00  0.00     0.176 C 
ATOM     27  O5  UNK     1       5.548  31.075 237.505  1.00  0.00    -0.646 OA
BRANCH  26  28
ATOM     28  O4  UNK     1       5.098  29.826 235.661  1.00  0.00    -0.773 OA
ATOM     29  H20 UNK     1       5.062  30.057 234.709  1.00  0.00     0.167 HD
ENDBRANCH  26  28
ENDBRANCH   5  26
TORSDOF 10
ENDMDL
MODEL 4
REMARK VINA RESULT:      -6.3      1.257      1.936
REMARK  10 active torsions:
REMARK  status: ('A' for Active; 'I' for Inactive)
REMARK    1  A    between atoms: S1_1  and  N2_8 
REMARK    2  A    between atoms: S1_1  and  C5_13 
REMARK    3  A    between atoms: O1_2  and  C4_12 
REMARK    4  A    between atoms: O1_2  and  C11_19 
REMARK    5  A    between atoms: O4_5  and  C12_20 
REMARK    6  A    between atoms: N1_7  and  C1_9 
REMARK    7  A    between atoms: N1_7  and  C3_11 
REMARK    8  A    between atoms: C1_9  and  C2_10 
REMARK    9  A    between atoms: C2_10  and  C6_14 
REMARK   10  A    between atoms: C8_16  and  C12_20 
ROOT
ATOM      1  C3  UNK     1       1.972  34.563 236.408  1.00  0.00     0.065 A 
ATOM      2  C4  UNK     1       0.740  35.187 236.134  1.00  0.00     0.125 A 
ATOM      3  C5  UNK     1       0.502  36.505 236.523  1.00  0.00     0.116 A 
ATOM      4  C7  UNK     1       2.957  35.307 237.084  1.00  0.00     0.050 A 
ATOM      5  C8  UNK     1       2.720  36.626 237.473  1.00  0.00     0.041 A 
ATOM      6  C9  UNK     1       1.491  37.224 237.192  1.00  0.00     0.046 A 
ENDROOT
BRANCH   2   7
ATOM      7  O1  UNK     1      -0.227  34.481 235.480  1.00  0.00    -0.307 OA
BRANCH   7   8
ATOM      8  C11 UNK     1      -0.028  34.214 234.137  1.00  0.00     0.076 A 
ATOM      9  C13 UNK     1      -0.749  33.197 233.536  1.00  0.00     0.037 A 
ATOM     10  C15 UNK     1      -0.547  32.928 232.183  1.00  0.00     0.003 A 
ATOM     11  C17 UNK     1       0.374  33.679 231.452  1.00  0.00     0.000 A 
ATOM     12  C16 UNK     1       1.093  34.699 232.075  1.00  0.00     0.003 A 
ATOM     13  C14 UNK     1       0.890  34.970 233.428  1.00  0.00     0.037 A 
ENDBRANCH   7   8
ENDBRANCH   2   7
BRANCH   1  14
ATOM     14  N1  UNK     1       2.224  33.254 236.028  1.00  0.00    -0.388 N 
ATOM     15  H5  UNK     1       1.461  32.590 236.080  1.00  0.00     0.159 HD
BRANCH  14  16
ATOM     16  C1  UNK     1       3.524  32.771 235.631  1.00  0.00     0.120 C 
BRANCH  16  17
ATOM     17  C2  UNK     1       3.423  31.362 235.049  1.00  0.00     0.019 C 
BRANCH  17  18
ATOM     18  C6  UNK     1       2.230  31.198 234.106  1.00  0.00    -0.003 C 
ATOM     19  C10 UNK     1       1.155  30.313 234.719  1.00  0.00     0.005 C 
ENDBRANCH  17  18
ENDBRANCH  16  17
ENDBRANCH  14  16
ENDBRANCH   1  14
BRANCH   3  20
ATOM     20  S1  UNK     1      -1.029  37.281 236.182  1.00  0.00     0.259 S 
ATOM     21  O2  UNK     1      -1.100  38.511 236.955  1.00  0.00    -0.201 OA
ATOM     22  O3  UNK     1      -1.213  37.318 234.739  1.00  0.00    -0.201 OA
BRANCH  20  23
ATOM     23  N2  UNK     1      -2.119  36.145 236.847  1.00  0.00    -0.324 N 
ATOM     24  H13 UNK     1      -1.973  35.858 237.822  1.00  0.00     0.169 HD
ATOM     25  H14 UNK     1      -2.450  35.389 236.236  1.00  0.00     0.169 HD
ENDBRANCH  20  23
ENDBRANCH   3  20
BRANCH   5  26
ATOM     26  C12 UNK     1       3.752  37.375 238.172  1.00  0.00     0.176 C 
ATOM     27  O5  UNK     1       3.850  37.485 239.399  1.00  0.00    -0.646 OA
BRANCH  26  28
ATOM     28  O4  UNK     1       4.633  37.967 237.320  1.00  0.00    -0.773 OA
ATOM     29  H20 UNK     1       5.142  37.307 236.804  1.00  0.00     0.167 HD
ENDBRANCH  26  28
ENDBRANCH   5  26
TORSDOF 10
ENDMDL
MODEL 5
REMARK VINA RESULT:      -6.2      2.088      5.280
REMARK  10 active torsions:
REMARK  status: ('A' for Active; 'I' for Inactive)
REMARK    1  A    between atoms: S1_1  and  N2_8 
REMARK    2  A    between atoms: S1_1  and  C5_13 
REMARK    3  A    between atoms: O1_2  and  C4_12 
REMARK    4  A    between atoms: O1_2  and  C11_19 
REMARK    5  A    between atoms: O4_5  and  C12_20 
REMARK    6  A    between atoms: N1_7  and  C1_9 
REMARK    7  A    between atoms: N1_7  and  C3_11 
REMARK    8  A    between atoms: C1_9  and  C2_10 
REMARK    9  A    between atoms: C2_10  and  C6_14 
REMARK   10  A    between atoms: C8_16  and  C12_20 
ROOT
ATOM      1  C3  UNK     1       1.022  35.144 235.175  1.00  0.00     0.065 A 
ATOM      2  C4  UNK     1       2.147  35.292 236.009  1.00  0.00     0.125 A 
ATOM      3  C5  UNK     1       2.153  36.226 237.045  1.00  0.00     0.116 A 
ATOM      4  C7  UNK     1      -0.096  35.966 235.416  1.00  0.00     0.050 A 
ATOM      5  C8  UNK     1      -0.090  36.900 236.452  1.00  0.00     0.041 A 
ATOM      6  C9  UNK     1       1.036  37.030 237.267  1.00  0.00     0.046 A 
ENDROOT
BRANCH   2   7
ATOM      7  O1  UNK     1       3.240  34.506 235.791  1.00  0.00    -0.307 OA
BRANCH   7   8
ATOM      8  C11 UNK     1       3.136  33.162 236.106  1.00  0.00     0.076 A 
ATOM      9  C13 UNK     1       2.374  32.782 237.198  1.00  0.00     0.037 A 
ATOM     10  C15 UNK     1       2.270  31.428 237.516  1.00  0.00     0.003 A 
ATOM     11  C17 UNK     1       2.929  30.476 236.738  1.00  0.00     0.000 A 
ATOM     12  C16 UNK     1       3.693  30.878 235.643  1.00  0.00     0.003 A 
ATOM     13  C14 UNK     1       3.797  32.232 235.323  1.00  0.00     0.037 A 
ENDBRANCH   7   8
ENDBRANCH   2   7
BRANCH   1  14
ATOM     14  N1  UNK     1       1.001  34.221 234.141  1.00  0.00    -0.388 N 
ATOM     15  H5  UNK     1       1.581  33.396 234.230  1.00  0.00     0.159 HD
BRANCH  14  16
ATOM     16  C1  UNK     1       0.254  34.403 232.920  1.00  0.00     0.120 C 
BRANCH  16  17
ATOM     17  C2  UNK     1       1.138  35.004 231.829  1.00  0.00     0.019 C 
BRANCH  17  18
ATOM     18  C6  UNK     1       0.927  34.341 230.466  1.00  0.00    -0.003 C 
ATOM     19  C10 UNK     1       1.690  35.069 229.370  1.00  0.00     0.005 C 
ENDBRANCH  17  18
ENDBRANCH  16  17
ENDBRANCH  14  16
ENDBRANCH   1  14
BRANCH   3  20
ATOM     20  S1  UNK     1       3.550  36.409 238.083  1.00  0.00     0.259 S 
ATOM     21  O2  UNK     1       3.429  37.672 238.794  1.00  0.00    -0.201 OA
ATOM     22  O3  UNK     1       3.734  35.171 238.827  1.00  0.00    -0.201 OA
BRANCH  20  23
ATOM     23  N2  UNK     1       4.797  36.543 236.923  1.00  0.00    -0.324 N 
ATOM     24  H13 UNK     1       5.523  37.252 237.082  1.00  0.00     0.169 HD
ATOM     25  H14 UNK     1       4.542  36.423 235.935  1.00  0.00     0.169 HD
ENDBRANCH  20  23
ENDBRANCH   3  20
BRANCH   5  26
ATOM     26  C12 UNK     1      -1.255  37.738 236.682  1.00  0.00     0.176 C 
ATOM     27  O5  UNK     1      -2.261  37.408 237.320  1.00  0.00    -0.646 OA
BRANCH  26  28
ATOM     28  O4  UNK     1      -1.135  38.967 236.109  1.00  0.00    -0.773 OA
ATOM     29  H20 UNK     1      -2.008  39.359 235.898  1.00  0.00     0.167 HD
ENDBRANCH  26  28
ENDBRANCH   5  26
TORSDOF 10
ENDMDL
MODEL 6
REMARK VINA RESULT:      -6.1      2.988      4.830
REMARK  10 active torsions:
REMARK  status: ('A' for Active; 'I' for Inactive)
REMARK    1  A    between atoms: S1_1  and  N2_8 
REMARK    2  A    between atoms: S1_1  and  C5_13 
REMARK    3  A    between atoms: O1_2  and  C4_12 
REMARK    4  A    between atoms: O1_2  and  C11_19 
REMARK    5  A    between atoms: O4_5  and  C12_20 
REMARK    6  A    between atoms: N1_7  and  C1_9 
REMARK    7  A    between atoms: N1_7  and  C3_11 
REMARK    8  A    between atoms: C1_9  and  C2_10 
REMARK    9  A    between atoms: C2_10  and  C6_14 
REMARK   10  A    between atoms: C8_16  and  C12_20 
ROOT
ATOM      1  C3  UNK     1       0.529  34.427 237.431  1.00  0.00     0.065 A 
ATOM      2  C4  UNK     1       1.877  34.799 237.595  1.00  0.00     0.125 A 
ATOM      3  C5  UNK     1       2.307  36.089 237.284  1.00  0.00     0.116 A 
ATOM      4  C7  UNK     1      -0.372  35.393 236.944  1.00  0.00     0.050 A 
ATOM      5  C8  UNK     1       0.058  36.683 236.634  1.00  0.00     0.041 A 
ATOM      6  C9  UNK     1       1.398  37.030 236.803  1.00  0.00     0.046 A 
ENDROOT
BRANCH   2   7
ATOM      7  O1  UNK     1       2.765  33.876 238.064  1.00  0.00    -0.307 OA
BRANCH   7   8
ATOM      8  C11 UNK     1       3.286  32.970 237.158  1.00  0.00     0.076 A 
ATOM      9  C13 UNK     1       2.864  33.015 235.840  1.00  0.00     0.037 A 
ATOM     10  C15 UNK     1       3.389  32.101 234.926  1.00  0.00     0.003 A 
ATOM     11  C17 UNK     1       4.326  31.156 235.345  1.00  0.00     0.000 A 
ATOM     12  C16 UNK     1       4.738  31.125 236.677  1.00  0.00     0.003 A 
ATOM     13  C14 UNK     1       4.214  32.040 237.591  1.00  0.00     0.037 A 
ENDBRANCH   7   8
ENDBRANCH   2   7
BRANCH   1  14
ATOM     14  N1  UNK     1       0.085  33.149 237.735  1.00  0.00    -0.388 N 
ATOM     15  H5  UNK     1       0.541  32.657 238.493  1.00  0.00     0.159 HD
BRANCH  14  16
ATOM     16  C1  UNK     1      -0.938  32.457 236.989  1.00  0.00     0.120 C 
BRANCH  16  17
ATOM     17  C2  UNK     1      -0.351  31.256 236.251  1.00  0.00     0.019 C 
BRANCH  17  18
ATOM     18  C6  UNK     1       0.600  30.435 237.123  1.00  0.00    -0.003 C 
ATOM     19  C10 UNK     1       1.244  29.306 236.333  1.00  0.00     0.005 C 
ENDBRANCH  17  18
ENDBRANCH  16  17
ENDBRANCH  14  16
ENDBRANCH   1  14
BRANCH   3  20
ATOM     20  S1  UNK     1       3.982  36.552 237.489  1.00  0.00     0.259 S 
ATOM     21  O2  UNK     1       4.783  35.802 236.534  1.00  0.00    -0.201 OA
ATOM     22  O3  UNK     1       4.056  38.006 237.517  1.00  0.00    -0.201 OA
BRANCH  20  23
ATOM     23  N2  UNK     1       4.290  35.955 239.060  1.00  0.00    -0.324 N 
ATOM     24  H13 UNK     1       3.852  36.444 239.850  1.00  0.00     0.169 HD
ATOM     25  H14 UNK     1       5.235  35.604 239.260  1.00  0.00     0.169 HD
ENDBRANCH  20  23
ENDBRANCH   3  20
BRANCH   5  26
ATOM     26  C12 UNK     1      -0.891  37.665 236.131  1.00  0.00     0.176 C 
ATOM     27  O5  UNK     1      -1.281  38.663 236.746  1.00  0.00    -0.646 OA
BRANCH  26  28
ATOM     28  O4  UNK     1      -1.326  37.374 234.875  1.00  0.00    -0.773 OA
ATOM     29  H20 UNK     1      -0.687  36.813 234.388  1.00  0.00     0.167 HD
ENDBRANCH  26  28
ENDBRANCH   5  26
TORSDOF 10
ENDMDL
MODEL 7
REMARK VINA RESULT:      -5.9      3.019      5.343
REMARK  10 active torsions:
REMARK  status: ('A' for Active; 'I' for Inactive)
REMARK    1  A    between atoms: S1_1  and  N2_8 
REMARK    2  A    between atoms: S1_1  and  C5_13 
REMARK    3  A    between atoms: O1_2  and  C4_12 
REMARK    4  A    between atoms: O1_2  and  C11_19 
REMARK    5  A    between atoms: O4_5  and  C12_20 
REMARK    6  A    between atoms: N1_7  and  C1_9 
REMARK    7  A    between atoms: N1_7  and  C3_11 
REMARK    8  A    between atoms: C1_9  and  C2_10 
REMARK    9  A    between atoms: C2_10  and  C6_14 
REMARK   10  A    between atoms: C8_16  and  C12_20 
ROOT
ATOM      1  C3  UNK     1       0.444  34.400 237.416  1.00  0.00     0.065 A 
ATOM      2  C4  UNK     1       1.801  34.744 237.569  1.00  0.00     0.125 A 
ATOM      3  C5  UNK     1       2.256  36.024 237.255  1.00  0.00     0.116 A 
ATOM      4  C7  UNK     1      -0.441  35.386 236.938  1.00  0.00     0.050 A 
ATOM      5  C8  UNK     1       0.014  36.666 236.624  1.00  0.00     0.041 A 
ATOM      6  C9  UNK     1       1.363  36.985 236.782  1.00  0.00     0.046 A 
ENDROOT
BRANCH   2   7
ATOM      7  O1  UNK     1       2.673  33.801 238.030  1.00  0.00    -0.307 OA
BRANCH   7   8
ATOM      8  C11 UNK     1       3.208  32.919 237.109  1.00  0.00     0.076 A 
ATOM      9  C13 UNK     1       2.695  32.890 235.823  1.00  0.00     0.037 A 
ATOM     10  C15 UNK     1       3.234  32.000 234.895  1.00  0.00     0.003 A 
ATOM     11  C17 UNK     1       4.277  31.152 235.267  1.00  0.00     0.000 A 
ATOM     12  C16 UNK     1       4.781  31.194 236.566  1.00  0.00     0.003 A 
ATOM     13  C14 UNK     1       4.243  32.085 237.495  1.00  0.00     0.037 A 
ENDBRANCH   7   8
ENDBRANCH   2   7
BRANCH   1  14
ATOM     14  N1  UNK     1      -0.024  33.132 237.723  1.00  0.00    -0.388 N 
ATOM     15  H5  UNK     1       0.246  32.730 238.612  1.00  0.00     0.159 HD
BRANCH  14  16
ATOM     16  C1  UNK     1      -0.814  32.329 236.821  1.00  0.00     0.120 C 
BRANCH  16  17
ATOM     17  C2  UNK     1      -1.960  31.648 237.566  1.00  0.00     0.019 C 
BRANCH  17  18
ATOM     18  C6  UNK     1      -2.613  32.561 238.607  1.00  0.00    -0.003 C 
ATOM     19  C10 UNK     1      -3.783  31.873 239.293  1.00  0.00     0.005 C 
ENDBRANCH  17  18
ENDBRANCH  16  17
ENDBRANCH  14  16
ENDBRANCH   1  14
BRANCH   3  20
ATOM     20  S1  UNK     1       3.942  36.451 237.445  1.00  0.00     0.259 S 
ATOM     21  O2  UNK     1       4.715  35.709 236.462  1.00  0.00    -0.201 OA
ATOM     22  O3  UNK     1       4.044  37.902 237.506  1.00  0.00    -0.201 OA
BRANCH  20  23
ATOM     23  N2  UNK     1       4.261  35.813 238.998  1.00  0.00    -0.324 N 
ATOM     24  H13 UNK     1       3.464  35.464 239.543  1.00  0.00     0.169 HD
ATOM     25  H14 UNK     1       4.982  36.276 239.564  1.00  0.00     0.169 HD
ENDBRANCH  20  23
ENDBRANCH   3  20
BRANCH   5  26
ATOM     26  C12 UNK     1      -0.917  37.669 236.131  1.00  0.00     0.176 C 
ATOM     27  O5  UNK     1      -1.294  38.665 236.756  1.00  0.00    -0.646 OA
BRANCH  26  28
ATOM     28  O4  UNK     1      -1.353  37.399 234.870  1.00  0.00    -0.773 OA
ATOM     29  H20 UNK     1      -0.721  36.834 234.377  1.00  0.00     0.167 HD
ENDBRANCH  26  28
ENDBRANCH   5  26
TORSDOF 10
ENDMDL
MODEL 8
REMARK VINA RESULT:      -5.9      2.563      3.607
REMARK  10 active torsions:
REMARK  status: ('A' for Active; 'I' for Inactive)
REMARK    1  A    between atoms: S1_1  and  N2_8 
REMARK    2  A    between atoms: S1_1  and  C5_13 
REMARK    3  A    between atoms: O1_2  and  C4_12 
REMARK    4  A    between atoms: O1_2  and  C11_19 
REMARK    5  A    between atoms: O4_5  and  C12_20 
REMARK    6  A    between atoms: N1_7  and  C1_9 
REMARK    7  A    between atoms: N1_7  and  C3_11 
REMARK    8  A    between atoms: C1_9  and  C2_10 
REMARK    9  A    between atoms: C2_10  and  C6_14 
REMARK   10  A    between atoms: C8_16  and  C12_20 
ROOT
ATOM      1  C3  UNK     1       1.153  35.136 234.982  1.00  0.00     0.065 A 
ATOM      2  C4  UNK     1       0.059  34.549 234.317  1.00  0.00     0.125 A 
ATOM      3  C5  UNK     1      -1.220  35.096 234.421  1.00  0.00     0.116 A 
ATOM      4  C7  UNK     1       0.920  36.289 235.754  1.00  0.00     0.050 A 
ATOM      5  C8  UNK     1      -0.359  36.836 235.858  1.00  0.00     0.041 A 
ATOM      6  C9  UNK     1      -1.429  36.239 235.191  1.00  0.00     0.046 A 
ENDROOT
BRANCH   2   7
ATOM      7  O1  UNK     1       0.266  33.430 233.564  1.00  0.00    -0.307 OA
BRANCH   7   8
ATOM      8  C11 UNK     1       0.562  33.606 232.224  1.00  0.00     0.076 A 
ATOM      9  C13 UNK     1       1.084  34.816 231.801  1.00  0.00     0.037 A 
ATOM     10  C15 UNK     1       1.382  34.993 230.450  1.00  0.00     0.003 A 
ATOM     11  C17 UNK     1       1.153  33.958 229.544  1.00  0.00     0.000 A 
ATOM     12  C16 UNK     1       0.626  32.746 229.988  1.00  0.00     0.003 A 
ATOM     13  C14 UNK     1       0.328  32.567 231.340  1.00  0.00     0.037 A 
ENDBRANCH   7   8
ENDBRANCH   2   7
BRANCH   1  14
ATOM     14  N1  UNK     1       2.430  34.604 234.889  1.00  0.00    -0.388 N 
ATOM     15  H5  UNK     1       2.804  34.429 233.965  1.00  0.00     0.159 HD
BRANCH  14  16
ATOM     16  C1  UNK     1       3.225  34.225 236.031  1.00  0.00     0.120 C 
BRANCH  16  17
ATOM     17  C2  UNK     1       4.236  35.317 236.374  1.00  0.00     0.019 C 
BRANCH  17  18
ATOM     18  C6  UNK     1       3.938  35.998 237.712  1.00  0.00    -0.003 C 
ATOM     19  C10 UNK     1       3.974  37.513 237.586  1.00  0.00     0.005 C 
ENDBRANCH  17  18
ENDBRANCH  16  17
ENDBRANCH  14  16
ENDBRANCH   1  14
BRANCH   3  20
ATOM     20  S1  UNK     1      -2.579  34.368 233.594  1.00  0.00     0.259 S 
ATOM     21  O2  UNK     1      -3.803  34.846 234.218  1.00  0.00    -0.201 OA
ATOM     22  O3  UNK     1      -2.384  34.530 232.160  1.00  0.00    -0.201 OA
BRANCH  20  23
ATOM     23  N2  UNK     1      -2.357  32.723 233.997  1.00  0.00    -0.324 N 
ATOM     24  H13 UNK     1      -1.867  32.509 234.874  1.00  0.00     0.169 HD
ATOM     25  H14 UNK     1      -2.146  32.069 233.233  1.00  0.00     0.169 HD
ENDBRANCH  20  23
ENDBRANCH   3  20
BRANCH   5  26
ATOM     26  C12 UNK     1      -0.577  38.028 236.663  1.00  0.00     0.176 C 
ATOM     27  O5  UNK     1      -0.141  38.211 237.804  1.00  0.00    -0.646 OA
BRANCH  26  28
ATOM     28  O4  UNK     1      -1.335  38.959 236.021  1.00  0.00    -0.773 OA
ATOM     29  H20 UNK     1      -2.253  38.648 235.878  1.00  0.00     0.167 HD
ENDBRANCH  26  28
ENDBRANCH   5  26
TORSDOF 10
ENDMDL
MODEL 9
REMARK VINA RESULT:      -5.8      3.240      6.256
REMARK  10 active torsions:
REMARK  status: ('A' for Active; 'I' for Inactive)
REMARK    1  A    between atoms: S1_1  and  N2_8 
REMARK    2  A    between atoms: S1_1  and  C5_13 
REMARK    3  A    between atoms: O1_2  and  C4_12 
REMARK    4  A    between atoms: O1_2  and  C11_19 
REMARK    5  A    between atoms: O4_5  and  C12_20 
REMARK    6  A    between atoms: N1_7  and  C1_9 
REMARK    7  A    between atoms: N1_7  and  C3_11 
REMARK    8  A    between atoms: C1_9  and  C2_10 
REMARK    9  A    between atoms: C2_10  and  C6_14 
REMARK   10  A    between atoms: C8_16  and  C12_20 
ROOT
ATOM      1  C3  UNK     1      -1.006  35.534 234.988  1.00  0.00     0.065 A 
ATOM      2  C4  UNK     1      -0.700  34.186 234.716  1.00  0.00     0.125 A 
ATOM      3  C5  UNK     1      -0.846  33.664 233.432  1.00  0.00     0.116 A 
ATOM      4  C7  UNK     1      -1.464  36.338 233.927  1.00  0.00     0.050 A 
ATOM      5  C8  UNK     1      -1.610  35.815 232.642  1.00  0.00     0.041 A 
ATOM      6  C9  UNK     1      -1.301  34.477 232.395  1.00  0.00     0.046 A 
ENDROOT
BRANCH   2   7
ATOM      7  O1  UNK     1      -0.256  33.392 235.732  1.00  0.00    -0.307 OA
BRANCH   7   8
ATOM      8  C11 UNK     1       1.005  33.649 236.242  1.00  0.00     0.076 A 
ATOM      9  C13 UNK     1       1.194  33.634 237.613  1.00  0.00     0.037 A 
ATOM     10  C15 UNK     1       2.465  33.894 238.127  1.00  0.00     0.003 A 
ATOM     11  C17 UNK     1       3.525  34.166 237.262  1.00  0.00     0.000 A 
ATOM     12  C16 UNK     1       3.314  34.178 235.884  1.00  0.00     0.003 A 
ATOM     13  C14 UNK     1       2.044  33.917 235.369  1.00  0.00     0.037 A 
ENDBRANCH   7   8
ENDBRANCH   2   7
BRANCH   1  14
ATOM     14  N1  UNK     1      -0.867  36.069 236.260  1.00  0.00    -0.388 N 
ATOM     15  H5  UNK     1      -0.850  35.428 237.044  1.00  0.00     0.159 HD
BRANCH  14  16
ATOM     16  C1  UNK     1      -0.814  37.485 236.532  1.00  0.00     0.120 C 
BRANCH  16  17
ATOM     17  C2  UNK     1       0.483  37.850 237.250  1.00  0.00     0.019 C 
BRANCH  17  18
ATOM     18  C6  UNK     1       1.724  37.593 236.392  1.00  0.00    -0.003 C 
ATOM     19  C10 UNK     1       2.993  37.608 237.232  1.00  0.00     0.005 C 
ENDBRANCH  17  18
ENDBRANCH  16  17
ENDBRANCH  14  16
ENDBRANCH   1  14
BRANCH   3  20
ATOM     20  S1  UNK     1      -0.464  31.990 233.094  1.00  0.00     0.259 S 
ATOM     21  O2  UNK     1      -1.081  31.628 231.827  1.00  0.00    -0.201 OA
ATOM     22  O3  UNK     1       0.966  31.797 233.287  1.00  0.00    -0.201 OA
BRANCH  20  23
ATOM     23  N2  UNK     1      -1.300  31.207 234.361  1.00  0.00    -0.324 N 
ATOM     24  H13 UNK     1      -2.222  31.576 234.623  1.00  0.00     0.169 HD
ATOM     25  H14 UNK     1      -0.747  30.866 235.157  1.00  0.00     0.169 HD
ENDBRANCH  20  23
ENDBRANCH   3  20
BRANCH   5  26
ATOM     26  C12 UNK     1      -2.085  36.664 231.561  1.00  0.00     0.176 C 
ATOM     27  O5  UNK     1      -1.369  37.242 230.737  1.00  0.00    -0.646 OA
BRANCH  26  28
ATOM     28  O4  UNK     1      -3.442  36.768 231.538  1.00  0.00    -0.773 OA
ATOM     29  H20 UNK     1      -3.866  35.949 231.205  1.00  0.00     0.167 HD
ENDBRANCH  26  28
ENDBRANCH   5  26
TORSDOF 10
ENDMDL
