MODEL 1
REMARK VINA RESULT:      -6.1      0.000      0.000
REMARK  5 active torsions:
REMARK  status: ('A' for Active; 'I' for Inactive)
REMARK    1  A    between atoms: N1_2  and  C6_9 
REMARK       I    between atoms: N2_3  and  C7_10 
REMARK    2  A    between atoms: N2_3  and  C10_13 
REMARK    3  A    between atoms: C1_4  and  C7_10 
REMARK    4  A    between atoms: C6_9  and  C8_11 
REMARK    5  A    between atoms: C8_11  and  C9_12 
ROOT
ATOM      1  O1  UNK     1       4.368  35.717 236.047  1.00  0.00    -0.271 OA
ATOM      2  N2  UNK     1       3.041  35.016 237.859  1.00  0.00    -0.324 N 
ATOM      3  C7  UNK     1       3.312  35.680 236.668  1.00  0.00     0.255 C 
ATOM      4  H16 UNK     1       2.075  34.978 238.176  1.00  0.00     0.169 HD
ENDROOT
BRANCH   3   5
ATOM      5  C1  UNK     1       2.097  36.400 236.163  1.00  0.00     0.314 C 
ATOM      6  N1  UNK     1       1.100  35.398 235.746  1.00  0.00     0.102 N 
ATOM      7  C3  UNK     1      -0.171  36.043 235.367  1.00  0.00     0.273 C 
ATOM      8  C5  UNK     1      -0.745  36.888 236.504  1.00  0.00     0.030 C 
ATOM      9  C4  UNK     1       0.256  37.941 236.959  1.00  0.00     0.004 C 
ATOM     10  C2  UNK     1       1.582  37.280 237.310  1.00  0.00     0.046 C 
BRANCH   6  11
ATOM     11  C6  UNK     1       1.575  34.586 234.618  1.00  0.00     0.273 C 
BRANCH  11  12
ATOM     12  C8  UNK     1       1.378  35.337 233.302  1.00  0.00     0.030 C 
BRANCH  12  13
ATOM     13  C9  UNK     1       0.964  34.386 232.178  1.00  0.00    -0.003 C 
ATOM     14  C11 UNK     1       1.331  34.943 230.813  1.00  0.00     0.005 C 
ENDBRANCH  12  13
ENDBRANCH  11  12
ENDBRANCH   6  11
ENDBRANCH   3   5
BRANCH   2  15
ATOM     15  C10 UNK     1       3.933  34.234 238.630  1.00  0.00     0.046 A 
ATOM     16  C12 UNK     1       4.577  34.807 239.716  1.00  0.00    -0.035 A 
ATOM     17  C14 UNK     1       5.457  34.036 240.476  1.00  0.00     0.009 A 
ATOM     18  C16 UNK     1       4.358  36.234 240.100  1.00  0.00     0.050 C 
ATOM     19  C18 UNK     1       5.681  32.700 240.141  1.00  0.00     0.001 A 
ATOM     20  C15 UNK     1       5.026  32.136 239.047  1.00  0.00     0.009 A 
ATOM     21  C13 UNK     1       4.147  32.907 238.286  1.00  0.00    -0.035 A 
ATOM     22  C17 UNK     1       3.461  32.274 237.120  1.00  0.00     0.050 C 
ENDBRANCH   2  15
TORSDOF 5
ENDMDL
MODEL 2
REMARK VINA RESULT:      -6.1      0.067      1.879
REMARK  5 active torsions:
REMARK  status: ('A' for Active; 'I' for Inactive)
REMARK    1  A    between atoms: N1_2  and  C6_9 
REMARK       I    between atoms: N2_3  and  C7_10 
REMARK    2  A    between atoms: N2_3  and  C10_13 
REMARK    3  A    between atoms: C1_4  and  C7_10 
REMARK    4  A    between atoms: C6_9  and  C8_11 
REMARK    5  A    between atoms: C8_11  and  C9_12 
ROOT
ATOM      1  O1  UNK     1       4.348  35.627 235.977  1.00  0.00    -0.271 OA
ATOM      2  N2  UNK     1       3.043  34.968 237.821  1.00  0.00    -0.324 N 
ATOM      3  C7  UNK     1       3.301  35.611 236.616  1.00  0.00     0.255 C 
ATOM      4  H16 UNK     1       2.082  34.947 238.155  1.00  0.00     0.169 HD
ENDROOT
BRANCH   3   5
ATOM      5  C1  UNK     1       2.088  36.339 236.121  1.00  0.00     0.314 C 
ATOM      6  N1  UNK     1       1.068  35.344 235.743  1.00  0.00     0.102 N 
ATOM      7  C3  UNK     1      -0.200  36.000 235.377  1.00  0.00     0.273 C 
ATOM      8  C5  UNK     1      -0.740  36.876 236.509  1.00  0.00     0.030 C 
ATOM      9  C4  UNK     1       0.285  37.922 236.924  1.00  0.00     0.004 C 
ATOM     10  C2  UNK     1       1.608  37.248 237.261  1.00  0.00     0.046 C 
BRANCH   6  11
ATOM     11  C6  UNK     1       1.509  34.504 234.622  1.00  0.00     0.273 C 
BRANCH  11  12
ATOM     12  C8  UNK     1       1.423  35.281 233.310  1.00  0.00     0.030 C 
BRANCH  12  13
ATOM     13  C9  UNK     1       0.954  34.384 232.164  1.00  0.00    -0.003 C 
ATOM     14  C11 UNK     1       1.340  34.959 230.812  1.00  0.00     0.005 C 
ENDBRANCH  12  13
ENDBRANCH  11  12
ENDBRANCH   6  11
ENDBRANCH   3   5
BRANCH   2  15
ATOM     15  C10 UNK     1       3.938  34.186 238.589  1.00  0.00     0.046 A 
ATOM     16  C12 UNK     1       4.152  32.860 238.244  1.00  0.00    -0.035 A 
ATOM     17  C14 UNK     1       5.033  32.089 239.001  1.00  0.00     0.009 A 
ATOM     18  C16 UNK     1       3.464  32.227 237.078  1.00  0.00     0.050 C 
ATOM     19  C18 UNK     1       5.691  32.652 240.095  1.00  0.00     0.001 A 
ATOM     20  C15 UNK     1       5.466  33.987 240.431  1.00  0.00     0.009 A 
ATOM     21  C13 UNK     1       4.584  34.759 239.674  1.00  0.00    -0.035 A 
ATOM     22  C17 UNK     1       4.365  36.185 240.060  1.00  0.00     0.050 C 
ENDBRANCH   2  15
TORSDOF 5
ENDMDL
MODEL 3
REMARK VINA RESULT:      -6.0      1.869      5.433
REMARK  5 active torsions:
REMARK  status: ('A' for Active; 'I' for Inactive)
REMARK    1  A    between atoms: N1_2  and  C6_9 
REMARK       I    between atoms: N2_3  and  C7_10 
REMARK    2  A    between atoms: N2_3  and  C10_13 
REMARK    3  A    between atoms: C1_4  and  C7_10 
REMARK    4  A    between atoms: C6_9  and  C8_11 
REMARK    5  A    between atoms: C8_11  and  C9_12 
ROOT
ATOM      1  O1  UNK     1       1.506  33.788 237.584  1.00  0.00    -0.271 OA
ATOM      2  N2  UNK     1       2.972  33.793 235.744  1.00  0.00    -0.324 N 
ATOM      3  C7  UNK     1       2.556  34.102 237.033  1.00  0.00     0.255 C 
ATOM      4  H16 UNK     1       3.929  34.019 235.484  1.00  0.00     0.169 HD
ENDROOT
BRANCH   3   5
ATOM      5  C1  UNK     1       3.590  34.913 237.755  1.00  0.00     0.314 C 
ATOM      6  N1  UNK     1       2.977  36.188 238.170  1.00  0.00     0.102 N 
ATOM      7  C3  UNK     1       3.903  36.973 239.005  1.00  0.00     0.273 C 
ATOM      8  C5  UNK     1       4.354  36.199 240.244  1.00  0.00     0.030 C 
ATOM      9  C4  UNK     1       5.000  34.876 239.855  1.00  0.00     0.004 C 
ATOM     10  C2  UNK     1       4.060  34.084 238.957  1.00  0.00     0.046 C 
BRANCH   6  11
ATOM     11  C6  UNK     1       2.569  37.003 237.018  1.00  0.00     0.273 C 
BRANCH  11  12
ATOM     12  C8  UNK     1       1.322  37.818 237.358  1.00  0.00     0.030 C 
BRANCH  12  13
ATOM     13  C9  UNK     1       0.115  37.348 236.546  1.00  0.00    -0.003 C 
ATOM     14  C11 UNK     1      -1.114  38.193 236.835  1.00  0.00     0.005 C 
ENDBRANCH  12  13
ENDBRANCH  11  12
ENDBRANCH   6  11
ENDBRANCH   3   5
BRANCH   2  15
ATOM     15  C10 UNK     1       2.271  33.046 234.768  1.00  0.00     0.046 A 
ATOM     16  C12 UNK     1       1.432  33.703 233.881  1.00  0.00    -0.035 A 
ATOM     17  C14 UNK     1       0.739  32.966 232.919  1.00  0.00     0.009 A 
ATOM     18  C16 UNK     1       1.244  35.185 233.922  1.00  0.00     0.050 C 
ATOM     19  C18 UNK     1       0.895  31.581 232.857  1.00  0.00     0.001 A 
ATOM     20  C15 UNK     1       1.742  30.933 233.755  1.00  0.00     0.009 A 
ATOM     21  C13 UNK     1       2.434  31.669 234.717  1.00  0.00    -0.035 A 
ATOM     22  C17 UNK     1       3.334  30.946 235.665  1.00  0.00     0.050 C 
ENDBRANCH   2  15
TORSDOF 5
ENDMDL
MODEL 4
REMARK VINA RESULT:      -6.0      2.099      4.741
REMARK  5 active torsions:
REMARK  status: ('A' for Active; 'I' for Inactive)
REMARK    1  A    between atoms: N1_2  and  C6_9 
REMARK       I    between atoms: N2_3  and  C7_10 
REMARK    2  A    between atoms: N2_3  and  C10_13 
REMARK    3  A    between atoms: C1_4  and  C7_10 
REMARK    4  A    between atoms: C6_9  and  C8_11 
REMARK    5  A    between atoms: C8_11  and  C9_12 
ROOT
ATOM      1  O1  UNK     1       2.062  36.455 233.548  1.00  0.00    -0.271 OA
ATOM      2  N2  UNK     1       1.400  35.317 235.498  1.00  0.00    -0.324 N 
ATOM      3  C7  UNK     1       1.357  35.651 234.150  1.00  0.00     0.255 C 
ATOM      4  H16 UNK     1       0.832  34.535 235.815  1.00  0.00     0.169 HD
ENDROOT
BRANCH   3   5
ATOM      5  C1  UNK     1       0.292  34.877 233.435  1.00  0.00     0.314 C 
ATOM      6  N1  UNK     1      -0.756  35.817 232.998  1.00  0.00     0.102 N 
ATOM      7  C3  UNK     1      -1.766  35.135 232.169  1.00  0.00     0.273 C 
ATOM      8  C5  UNK     1      -1.144  34.465 230.944  1.00  0.00     0.030 C 
ATOM      9  C4  UNK     1      -0.058  33.480 231.355  1.00  0.00     0.004 C 
ATOM     10  C2  UNK     1       0.962  34.173 232.247  1.00  0.00     0.046 C 
BRANCH   6  11
ATOM     11  C6  UNK     1      -1.430  36.456 234.136  1.00  0.00     0.273 C 
BRANCH  11  12
ATOM     12  C8  UNK     1      -2.285  35.438 234.889  1.00  0.00     0.030 C 
BRANCH  12  13
ATOM     13  C9  UNK     1      -2.218  35.667 236.399  1.00  0.00    -0.003 C 
ATOM     14  C11 UNK     1      -1.652  34.456 237.122  1.00  0.00     0.005 C 
ENDBRANCH  12  13
ENDBRANCH  11  12
ENDBRANCH   6  11
ENDBRANCH   3   5
BRANCH   2  15
ATOM     15  C10 UNK     1       2.269  35.836 236.487  1.00  0.00     0.046 A 
ATOM     16  C12 UNK     1       3.409  35.127 236.832  1.00  0.00    -0.035 A 
ATOM     17  C14 UNK     1       4.265  35.638 237.808  1.00  0.00     0.009 A 
ATOM     18  C16 UNK     1       3.752  33.822 236.188  1.00  0.00     0.050 C 
ATOM     19  C18 UNK     1       3.971  36.854 238.426  1.00  0.00     0.001 A 
ATOM     20  C15 UNK     1       2.821  37.557 238.069  1.00  0.00     0.009 A 
ATOM     21  C13 UNK     1       1.965  37.046 237.094  1.00  0.00    -0.035 A 
ATOM     22  C17 UNK     1       0.741  37.823 236.733  1.00  0.00     0.050 C 
ENDBRANCH   2  15
TORSDOF 5
ENDMDL
MODEL 5
REMARK VINA RESULT:      -6.0      2.101      4.508
REMARK  5 active torsions:
REMARK  status: ('A' for Active; 'I' for Inactive)
REMARK    1  A    between atoms: N1_2  and  C6_9 
REMARK       I    between atoms: N2_3  and  C7_10 
REMARK    2  A    between atoms: N2_3  and  C10_13 
REMARK    3  A    between atoms: C1_4  and  C7_10 
REMARK    4  A    between atoms: C6_9  and  C8_11 
REMARK    5  A    between atoms: C8_11  and  C9_12 
ROOT
ATOM      1  O1  UNK     1       2.125  36.431 233.529  1.00  0.00    -0.271 OA
ATOM      2  N2  UNK     1       1.458  35.312 235.488  1.00  0.00    -0.324 N 
ATOM      3  C7  UNK     1       1.417  35.636 234.137  1.00  0.00     0.255 C 
ATOM      4  H16 UNK     1       0.886  34.535 235.810  1.00  0.00     0.169 HD
ENDROOT
BRANCH   3   5
ATOM      5  C1  UNK     1       0.347  34.861 233.428  1.00  0.00     0.314 C 
ATOM      6  N1  UNK     1      -0.712  35.799 233.012  1.00  0.00     0.102 N 
ATOM      7  C3  UNK     1      -1.728  35.119 232.189  1.00  0.00     0.273 C 
ATOM      8  C5  UNK     1      -1.116  34.463 230.951  1.00  0.00     0.030 C 
ATOM      9  C4  UNK     1      -0.020  33.480 231.340  1.00  0.00     0.004 C 
ATOM     10  C2  UNK     1       1.007  34.172 232.226  1.00  0.00     0.046 C 
BRANCH   6  11
ATOM     11  C6  UNK     1      -1.375  36.425 234.164  1.00  0.00     0.273 C 
BRANCH  11  12
ATOM     12  C8  UNK     1      -2.239  35.403 234.900  1.00  0.00     0.030 C 
BRANCH  12  13
ATOM     13  C9  UNK     1      -2.259  35.674 236.404  1.00  0.00    -0.003 C 
ATOM     14  C11 UNK     1      -1.605  34.546 237.183  1.00  0.00     0.005 C 
ENDBRANCH  12  13
ENDBRANCH  11  12
ENDBRANCH   6  11
ENDBRANCH   3   5
BRANCH   2  15
ATOM     15  C10 UNK     1       2.330  35.834 236.472  1.00  0.00     0.046 A 
ATOM     16  C12 UNK     1       2.021  37.037 237.087  1.00  0.00    -0.035 A 
ATOM     17  C14 UNK     1       2.882  37.552 238.057  1.00  0.00     0.009 A 
ATOM     18  C16 UNK     1       0.787  37.806 236.740  1.00  0.00     0.050 C 
ATOM     19  C18 UNK     1       4.041  36.857 238.401  1.00  0.00     0.001 A 
ATOM     20  C15 UNK     1       4.340  35.647 237.775  1.00  0.00     0.009 A 
ATOM     21  C13 UNK     1       3.480  35.132 236.804  1.00  0.00    -0.035 A 
ATOM     22  C17 UNK     1       3.828  33.834 236.152  1.00  0.00     0.050 C 
ENDBRANCH   2  15
TORSDOF 5
ENDMDL
MODEL 6
REMARK VINA RESULT:      -6.0      2.088      3.638
REMARK  5 active torsions:
REMARK  status: ('A' for Active; 'I' for Inactive)
REMARK    1  A    between atoms: N1_2  and  C6_9 
REMARK       I    between atoms: N2_3  and  C7_10 
REMARK    2  A    between atoms: N2_3  and  C10_13 
REMARK    3  A    between atoms: C1_4  and  C7_10 
REMARK    4  A    between atoms: C6_9  and  C8_11 
REMARK    5  A    between atoms: C8_11  and  C9_12 
ROOT
ATOM      1  O1  UNK     1       1.936  36.541 233.512  1.00  0.00    -0.271 OA
ATOM      2  N2  UNK     1       0.997  35.527 235.417  1.00  0.00    -0.324 N 
ATOM      3  C7  UNK     1       1.036  35.940 234.090  1.00  0.00     0.255 C 
ATOM      4  H16 UNK     1       0.231  34.924 235.707  1.00  0.00     0.169 HD
ENDROOT
BRANCH   3   5
ATOM      5  C1  UNK     1      -0.216  35.549 233.366  1.00  0.00     0.314 C 
ATOM      6  N1  UNK     1      -0.224  34.084 233.202  1.00  0.00     0.102 N 
ATOM      7  C3  UNK     1      -1.497  33.624 232.618  1.00  0.00     0.273 C 
ATOM      8  C5  UNK     1      -2.700  34.047 233.460  1.00  0.00     0.030 C 
ATOM      9  C4  UNK     1      -2.731  35.558 233.646  1.00  0.00     0.004 C 
ATOM     10  C2  UNK     1      -1.401  36.039 234.210  1.00  0.00     0.046 C 
BRANCH   6  11
ATOM     11  C6  UNK     1       0.882  33.619 232.356  1.00  0.00     0.273 C 
BRANCH  11  12
ATOM     12  C8  UNK     1       0.576  33.890 230.884  1.00  0.00     0.030 C 
BRANCH  12  13
ATOM     13  C9  UNK     1       1.517  34.948 230.308  1.00  0.00    -0.003 C 
ATOM     14  C11 UNK     1       1.690  34.784 228.808  1.00  0.00     0.005 C 
ENDBRANCH  12  13
ENDBRANCH  11  12
ENDBRANCH   6  11
ENDBRANCH   3   5
BRANCH   2  15
ATOM     15  C10 UNK     1       1.991  35.714 236.407  1.00  0.00     0.046 A 
ATOM     16  C12 UNK     1       1.948  36.842 237.211  1.00  0.00    -0.035 A 
ATOM     17  C14 UNK     1       2.929  37.026 238.186  1.00  0.00     0.009 A 
ATOM     18  C16 UNK     1       0.878  37.875 237.064  1.00  0.00     0.050 C 
ATOM     19  C18 UNK     1       3.940  36.079 238.345  1.00  0.00     0.001 A 
ATOM     20  C15 UNK     1       3.971  34.948 237.530  1.00  0.00     0.009 A 
ATOM     21  C13 UNK     1       2.992  34.764 236.554  1.00  0.00    -0.035 A 
ATOM     22  C17 UNK     1       3.052  33.542 235.697  1.00  0.00     0.050 C 
ENDBRANCH   2  15
TORSDOF 5
ENDMDL
MODEL 7
REMARK VINA RESULT:      -5.9      2.233      4.022
REMARK  5 active torsions:
REMARK  status: ('A' for Active; 'I' for Inactive)
REMARK    1  A    between atoms: N1_2  and  C6_9 
REMARK       I    between atoms: N2_3  and  C7_10 
REMARK    2  A    between atoms: N2_3  and  C10_13 
REMARK    3  A    between atoms: C1_4  and  C7_10 
REMARK    4  A    between atoms: C6_9  and  C8_11 
REMARK    5  A    between atoms: C8_11  and  C9_12 
ROOT
ATOM      1  O1  UNK     1       1.345  36.714 233.707  1.00  0.00    -0.271 OA
ATOM      2  N2  UNK     1       0.905  35.472 235.656  1.00  0.00    -0.324 N 
ATOM      3  C7  UNK     1       0.678  35.919 234.360  1.00  0.00     0.255 C 
ATOM      4  H16 UNK     1       0.328  34.711 236.007  1.00  0.00     0.169 HD
ENDROOT
BRANCH   3   5
ATOM      5  C1  UNK     1      -0.552  35.288 233.779  1.00  0.00     0.314 C 
ATOM      6  N1  UNK     1      -0.321  33.837 233.660  1.00  0.00     0.102 N 
ATOM      7  C3  UNK     1      -1.545  33.141 233.222  1.00  0.00     0.273 C 
ATOM      8  C5  UNK     1      -2.717  33.393 234.171  1.00  0.00     0.030 C 
ATOM      9  C4  UNK     1      -2.991  34.883 234.315  1.00  0.00     0.004 C 
ATOM     10  C2  UNK     1      -1.717  35.608 234.725  1.00  0.00     0.046 C 
BRANCH   6  11
ATOM     11  C6  UNK     1       0.763  33.528 232.718  1.00  0.00     0.273 C 
BRANCH  11  12
ATOM     12  C8  UNK     1       0.361  33.918 231.297  1.00  0.00     0.030 C 
BRANCH  12  13
ATOM     13  C9  UNK     1       1.371  34.886 230.681  1.00  0.00    -0.003 C 
ATOM     14  C11 UNK     1       1.512  34.667 229.184  1.00  0.00     0.005 C 
ENDBRANCH  12  13
ENDBRANCH  11  12
ENDBRANCH   6  11
ENDBRANCH   3   5
BRANCH   2  15
ATOM     15  C10 UNK     1       1.963  35.841 236.521  1.00  0.00     0.046 A 
ATOM     16  C12 UNK     1       3.096  35.046 236.588  1.00  0.00    -0.035 A 
ATOM     17  C14 UNK     1       4.138  35.409 237.442  1.00  0.00     0.009 A 
ATOM     18  C16 UNK     1       3.239  33.804 235.770  1.00  0.00     0.050 C 
ATOM     19  C18 UNK     1       4.034  36.564 238.218  1.00  0.00     0.001 A 
ATOM     20  C15 UNK     1       2.888  37.355 238.140  1.00  0.00     0.009 A 
ATOM     21  C13 UNK     1       1.845  36.991 237.287  1.00  0.00    -0.035 A 
ATOM     22  C17 UNK     1       0.631  37.859 237.227  1.00  0.00     0.050 C 
ENDBRANCH   2  15
TORSDOF 5
ENDMDL
MODEL 8
REMARK VINA RESULT:      -5.8      1.600      3.979
REMARK  5 active torsions:
REMARK  status: ('A' for Active; 'I' for Inactive)
REMARK    1  A    between atoms: N1_2  and  C6_9 
REMARK       I    between atoms: N2_3  and  C7_10 
REMARK    2  A    between atoms: N2_3  and  C10_13 
REMARK    3  A    between atoms: C1_4  and  C7_10 
REMARK    4  A    between atoms: C6_9  and  C8_11 
REMARK    5  A    between atoms: C8_11  and  C9_12 
ROOT
ATOM      1  O1  UNK     1       1.051  33.059 237.345  1.00  0.00    -0.271 OA
ATOM      2  N2  UNK     1       3.152  33.448 236.360  1.00  0.00    -0.324 N 
ATOM      3  C7  UNK     1       1.773  33.561 236.490  1.00  0.00     0.255 C 
ATOM      4  H16 UNK     1       3.617  34.035 235.671  1.00  0.00     0.169 HD
ENDROOT
BRANCH   3   5
ATOM      5  C1  UNK     1       1.198  34.426 235.410  1.00  0.00     0.314 C 
ATOM      6  N1  UNK     1       2.136  35.532 235.147  1.00  0.00     0.102 N 
ATOM      7  C3  UNK     1       1.691  36.341 233.998  1.00  0.00     0.273 C 
ATOM      8  C5  UNK     1       1.531  35.500 232.732  1.00  0.00     0.030 C 
ATOM      9  C4  UNK     1       0.562  34.348 232.962  1.00  0.00     0.004 C 
ATOM     10  C2  UNK     1       0.997  33.537 234.175  1.00  0.00     0.046 C 
BRANCH   6  11
ATOM     11  C6  UNK     1       2.292  36.410 236.314  1.00  0.00     0.273 C 
BRANCH  11  12
ATOM     12  C8  UNK     1       1.446  37.671 236.148  1.00  0.00     0.030 C 
BRANCH  12  13
ATOM     13  C9  UNK     1       0.427  37.807 237.280  1.00  0.00    -0.003 C 
ATOM     14  C11 UNK     1      -0.949  38.173 236.750  1.00  0.00     0.005 C 
ENDBRANCH  12  13
ENDBRANCH  11  12
ENDBRANCH   6  11
ENDBRANCH   3   5
BRANCH   2  15
ATOM     15  C10 UNK     1       4.038  32.719 237.188  1.00  0.00     0.046 A 
ATOM     16  C12 UNK     1       4.597  31.541 236.717  1.00  0.00    -0.035 A 
ATOM     17  C14 UNK     1       5.470  30.822 237.533  1.00  0.00     0.009 A 
ATOM     18  C16 UNK     1       4.291  31.014 235.352  1.00  0.00     0.050 C 
ATOM     19  C18 UNK     1       5.774  31.290 238.812  1.00  0.00     0.001 A 
ATOM     20  C15 UNK     1       5.205  32.476 239.273  1.00  0.00     0.009 A 
ATOM     21  C13 UNK     1       4.332  33.195 238.458  1.00  0.00    -0.035 A 
ATOM     22  C17 UNK     1       3.739  34.463 238.981  1.00  0.00     0.050 C 
ENDBRANCH   2  15
TORSDOF 5
ENDMDL
MODEL 9
REMARK VINA RESULT:      -5.7      1.825      3.717
REMARK  5 active torsions:
REMARK  status: ('A' for Active; 'I' for Inactive)
REMARK    1  A    between atoms: N1_2  and  C6_9 
REMARK       I    between atoms: N2_3  and  C7_10 
REMARK    2  A    between atoms: N2_3  and  C10_13 
REMARK    3  A    between atoms: C1_4  and  C7_10 
REMARK    4  A    between atoms: C6_9  and  C8_11 
REMARK    5  A    between atoms: C8_11  and  C9_12 
ROOT
ATOM      1  O1  UNK     1       0.781  32.020 236.830  1.00  0.00    -0.271 OA
ATOM      2  N2  UNK     1       2.740  33.138 236.161  1.00  0.00    -0.324 N 
ATOM      3  C7  UNK     1       1.393  32.802 236.111  1.00  0.00     0.255 C 
ATOM      4  H16 UNK     1       3.064  33.903 235.575  1.00  0.00     0.169 HD
ENDROOT
BRANCH   3   5
ATOM      5  C1  UNK     1       0.692  33.545 235.013  1.00  0.00     0.314 C 
ATOM      6  N1  UNK     1       0.862  34.991 235.244  1.00  0.00     0.102 N 
ATOM      7  C3  UNK     1       0.312  35.774 234.123  1.00  0.00     0.273 C 
ATOM      8  C5  UNK     1       0.955  35.394 232.789  1.00  0.00     0.030 C 
ATOM      9  C4  UNK     1       0.794  33.906 232.511  1.00  0.00     0.004 C 
ATOM     10  C2  UNK     1       1.323  33.097 233.687  1.00  0.00     0.046 C 
BRANCH   6  11
ATOM     11  C6  UNK     1       0.218  35.428 236.489  1.00  0.00     0.273 C 
BRANCH  11  12
ATOM     12  C8  UNK     1      -0.531  36.741 236.268  1.00  0.00     0.030 C 
BRANCH  12  13
ATOM     13  C9  UNK     1       0.155  37.899 236.994  1.00  0.00    -0.003 C 
ATOM     14  C11 UNK     1       1.570  37.535 237.412  1.00  0.00     0.005 C 
ENDBRANCH  12  13
ENDBRANCH  11  12
ENDBRANCH   6  11
ENDBRANCH   3   5
BRANCH   2  15
ATOM     15  C10 UNK     1       3.717  32.645 237.059  1.00  0.00     0.046 A 
ATOM     16  C12 UNK     1       3.854  33.233 238.307  1.00  0.00    -0.035 A 
ATOM     17  C14 UNK     1       4.818  32.747 239.191  1.00  0.00     0.009 A 
ATOM     18  C16 UNK     1       2.996  34.378 238.738  1.00  0.00     0.050 C 
ATOM     19  C18 UNK     1       5.633  31.679 238.816  1.00  0.00     0.001 A 
ATOM     20  C15 UNK     1       5.485  31.097 237.557  1.00  0.00     0.009 A 
ATOM     21  C13 UNK     1       4.521  31.583 236.673  1.00  0.00    -0.035 A 
ATOM     22  C17 UNK     1       4.387  30.938 235.332  1.00  0.00     0.050 C 
ENDBRANCH   2  15
TORSDOF 5
ENDMDL
