MODEL 1
REMARK VINA RESULT:      -7.2      0.000      0.000
REMARK  5 active torsions:
REMARK  status: ('A' for Active; 'I' for Inactive)
REMARK    1  A    between atoms: N1_3  and  C10_19 
REMARK    2  A    between atoms: N2_4  and  C13_22 
REMARK       I    between atoms: N3_5  and  C18_27 
REMARK    3  A    between atoms: C10_19  and  C11_20 
REMARK    4  A    between atoms: C11_20  and  C12_21 
REMARK    5  A    between atoms: C12_21  and  C13_22 
ROOT
ATOM      1  C12 UNK     1       1.086  34.130 229.653  1.00  0.00     0.032 C 
ENDROOT
BRANCH   1   2
ATOM      2  C11 UNK     1       1.014  34.369 231.166  1.00  0.00     0.022 C 
BRANCH   2   3
ATOM      3  C10 UNK     1      -0.404  34.237 231.713  1.00  0.00     0.135 C 
BRANCH   3   4
ATOM      4  N1  UNK     1      -0.528  34.763 233.068  1.00  0.00    -0.288 N 
ATOM      5  C8  UNK     1      -0.973  36.093 233.192  1.00  0.00     0.227 C 
ATOM      6  O1  UNK     1      -1.315  36.802 232.243  1.00  0.00    -0.273 OA
ATOM      7  C6  UNK     1      -1.088  36.628 234.602  1.00  0.00     0.113 C 
ATOM      8  C1  UNK     1      -0.130  35.947 235.582  1.00  0.00    -0.024 C 
ATOM      9  C2  UNK     1       1.343  36.311 235.330  1.00  0.00     0.010 C 
ATOM     10  C3  UNK     1      -0.329  36.485 237.010  1.00  0.00     0.010 C 
ATOM     11  C7  UNK     1      -0.395  34.448 235.518  1.00  0.00     0.113 C 
ATOM     12  C4  UNK     1       1.532  37.681 235.980  1.00  0.00     0.001 C 
ATOM     13  C5  UNK     1       0.449  37.797 237.051  1.00  0.00     0.001 C 
ATOM     14  C9  UNK     1      -0.240  33.882 234.126  1.00  0.00     0.227 C 
ATOM     15  O2  UNK     1       0.062  32.695 233.982  1.00  0.00    -0.273 OA
ENDBRANCH   3   4
ENDBRANCH   2   3
ENDBRANCH   1   2
BRANCH   1  16
ATOM     16  C13 UNK     1      -0.228  34.515 228.973  1.00  0.00     0.272 C 
BRANCH  16  17
ATOM     17  N2  UNK     1      -0.072  35.774 228.244  1.00  0.00     0.091 N 
ATOM     18  C14 UNK     1       1.350  36.077 228.039  1.00  0.00     0.292 C 
ATOM     19  C16 UNK     1       1.528  37.363 227.228  1.00  0.00     0.171 C 
ATOM     20  N3  UNK     1       0.791  38.468 227.851  1.00  0.00    -0.214 N 
ATOM     21  C17 UNK     1      -0.609  38.186 228.194  1.00  0.00     0.171 C 
ATOM     22  C18 UNK     1       1.141  39.790 227.553  1.00  0.00     0.679 A 
ATOM     23  C15 UNK     1      -0.716  36.874 228.973  1.00  0.00     0.292 C 
ATOM     24  N4  UNK     1       2.168  39.991 226.685  1.00  0.00    -0.202 N 
ATOM     25  N5  UNK     1       0.430  40.782 228.153  1.00  0.00    -0.202 N 
ATOM     26  C19 UNK     1       2.479  41.277 226.420  1.00  0.00     0.107 A 
ATOM     27  H4  UNK     1       2.673  39.214 226.258  1.00  0.00     0.183 HD
ATOM     28  C21 UNK     1       1.820  42.354 226.976  1.00  0.00     0.035 A 
ATOM     29  C20 UNK     1       0.794  42.044 227.844  1.00  0.00     0.107 A 
ATOM     30  H5  UNK     1      -0.334  40.584 228.800  1.00  0.00     0.183 HD
ENDBRANCH  16  17
ENDBRANCH   1  16
TORSDOF 5
ENDMDL
MODEL 2
REMARK VINA RESULT:      -6.9      2.258      3.461
REMARK  5 active torsions:
REMARK  status: ('A' for Active; 'I' for Inactive)
REMARK    1  A    between atoms: N1_3  and  C10_19 
REMARK    2  A    between atoms: N2_4  and  C13_22 
REMARK       I    between atoms: N3_5  and  C18_27 
REMARK    3  A    between atoms: C10_19  and  C11_20 
REMARK    4  A    between atoms: C11_20  and  C12_21 
REMARK    5  A    between atoms: C12_21  and  C13_22 
ROOT
ATOM      1  C12 UNK     1      -2.486  34.423 233.120  1.00  0.00     0.032 C 
ENDROOT
BRANCH   1   2
ATOM      2  C11 UNK     1      -1.449  34.823 234.176  1.00  0.00     0.022 C 
BRANCH   2   3
ATOM      3  C10 UNK     1      -1.193  36.326 234.204  1.00  0.00     0.135 C 
BRANCH   3   4
ATOM      4  N1  UNK     1      -0.105  36.688 235.107  1.00  0.00    -0.288 N 
ATOM      5  C8  UNK     1       1.204  36.523 234.618  1.00  0.00     0.227 C 
ATOM      6  O1  UNK     1       1.476  36.156 233.472  1.00  0.00    -0.273 OA
ATOM      7  C6  UNK     1       2.322  36.892 235.567  1.00  0.00     0.113 C 
ATOM      8  C1  UNK     1       1.930  36.749 237.039  1.00  0.00    -0.024 C 
ATOM      9  C2  UNK     1       1.752  35.284 237.472  1.00  0.00     0.010 C 
ATOM     10  C3  UNK     1       3.080  37.193 237.961  1.00  0.00     0.010 C 
ATOM     11  C7  UNK     1       0.685  37.596 237.269  1.00  0.00     0.113 C 
ATOM     12  C4  UNK     1       3.168  34.766 237.721  1.00  0.00     0.001 C 
ATOM     13  C5  UNK     1       4.023  35.995 238.023  1.00  0.00     0.001 C 
ATOM     14  C9  UNK     1      -0.462  37.213 236.362  1.00  0.00     0.227 C 
ATOM     15  O2  UNK     1      -1.621  37.427 236.724  1.00  0.00    -0.273 OA
ENDBRANCH   3   4
ENDBRANCH   2   3
ENDBRANCH   1   2
BRANCH   1  16
ATOM     16  C13 UNK     1      -1.816  33.771 231.911  1.00  0.00     0.272 C 
BRANCH  16  17
ATOM     17  N2  UNK     1      -1.755  34.715 230.795  1.00  0.00     0.091 N 
ATOM     18  C14 UNK     1      -0.402  35.270 230.663  1.00  0.00     0.292 C 
ATOM     19  C16 UNK     1      -0.310  36.217 229.464  1.00  0.00     0.171 C 
ATOM     20  N3  UNK     1      -1.347  37.251 229.545  1.00  0.00    -0.214 N 
ATOM     21  C17 UNK     1      -2.710  36.765 229.798  1.00  0.00     0.171 C 
ATOM     22  C18 UNK     1      -1.197  38.442 228.826  1.00  0.00     0.679 A 
ATOM     23  C15 UNK     1      -2.724  35.801 230.987  1.00  0.00     0.292 C 
ATOM     24  N4  UNK     1      -0.074  38.588 228.074  1.00  0.00    -0.202 N 
ATOM     25  N5  UNK     1      -2.185  39.371 228.931  1.00  0.00    -0.202 N 
ATOM     26  C19 UNK     1       0.039  39.748 227.394  1.00  0.00     0.107 A 
ATOM     27  H4  UNK     1       0.641  37.862 228.026  1.00  0.00     0.183 HD
ATOM     28  C21 UNK     1      -0.905  40.753 227.432  1.00  0.00     0.035 A 
ATOM     29  C20 UNK     1      -2.008  40.508 228.225  1.00  0.00     0.107 A 
ATOM     30  H5  UNK     1      -3.011  39.218 229.509  1.00  0.00     0.183 HD
ENDBRANCH  16  17
ENDBRANCH   1  16
TORSDOF 5
ENDMDL
MODEL 3
REMARK VINA RESULT:      -6.9      2.338      7.960
REMARK  5 active torsions:
REMARK  status: ('A' for Active; 'I' for Inactive)
REMARK    1  A    between atoms: N1_3  and  C10_19 
REMARK    2  A    between atoms: N2_4  and  C13_22 
REMARK       I    between atoms: N3_5  and  C18_27 
REMARK    3  A    between atoms: C10_19  and  C11_20 
REMARK    4  A    between atoms: C11_20  and  C12_21 
REMARK    5  A    between atoms: C12_21  and  C13_22 
ROOT
ATOM      1  C12 UNK     1      -3.044  35.940 228.953  1.00  0.00     0.032 C 
ENDROOT
BRANCH   1   2
ATOM      2  C11 UNK     1      -2.651  36.982 227.900  1.00  0.00     0.022 C 
BRANCH   2   3
ATOM      3  C10 UNK     1      -2.419  38.364 228.501  1.00  0.00     0.135 C 
BRANCH   3   4
ATOM      4  N1  UNK     1      -1.325  39.077 227.850  1.00  0.00    -0.288 N 
ATOM      5  C8  UNK     1      -0.029  38.569 228.053  1.00  0.00     0.227 C 
ATOM      6  O1  UNK     1       0.223  37.540 228.686  1.00  0.00    -0.273 OA
ATOM      7  C6  UNK     1       1.096  39.323 227.381  1.00  0.00     0.113 C 
ATOM      8  C1  UNK     1       0.778  40.804 227.162  1.00  0.00    -0.024 C 
ATOM      9  C2  UNK     1       0.732  41.606 228.473  1.00  0.00     0.010 C 
ATOM     10  C3  UNK     1       1.928  41.511 226.423  1.00  0.00     0.010 C 
ATOM     11  C7  UNK     1      -0.518  40.884 226.365  1.00  0.00     0.113 C 
ATOM     12  C4  UNK     1       2.192  41.894 228.818  1.00  0.00     0.001 C 
ATOM     13  C5  UNK     1       2.962  41.820 227.501  1.00  0.00     0.001 C 
ATOM     14  C9  UNK     1      -1.669  40.176 227.041  1.00  0.00     0.227 C 
ATOM     15  O2  UNK     1      -2.825  40.540 226.815  1.00  0.00    -0.273 OA
ENDBRANCH   3   4
ENDBRANCH   2   3
ENDBRANCH   1   2
BRANCH   1  16
ATOM     16  C13 UNK     1      -1.856  35.048 229.314  1.00  0.00     0.272 C 
BRANCH  16  17
ATOM     17  N2  UNK     1      -1.590  35.114 230.751  1.00  0.00     0.091 N 
ATOM     18  C14 UNK     1      -2.318  36.236 231.358  1.00  0.00     0.292 C 
ATOM     19  C16 UNK     1      -2.094  36.283 232.872  1.00  0.00     0.171 C 
ATOM     20  N3  UNK     1      -0.659  36.298 233.178  1.00  0.00    -0.214 N 
ATOM     21  C17 UNK     1       0.146  35.272 232.504  1.00  0.00     0.171 C 
ATOM     22  C18 UNK     1      -0.221  36.765 234.423  1.00  0.00     0.679 A 
ATOM     23  C15 UNK     1      -0.151  35.259 231.002  1.00  0.00     0.292 C 
ATOM     24  N4  UNK     1      -1.164  37.190 235.305  1.00  0.00    -0.202 N 
ATOM     25  N5  UNK     1       1.118  36.759 234.663  1.00  0.00    -0.202 N 
ATOM     26  C19 UNK     1      -0.707  37.633 236.495  1.00  0.00     0.107 A 
ATOM     27  H4  UNK     1      -2.159  37.176 235.081  1.00  0.00     0.183 HD
ATOM     28  C21 UNK     1       0.630  37.669 236.837  1.00  0.00     0.035 A 
ATOM     29  C20 UNK     1       1.506  37.215 235.873  1.00  0.00     0.107 A 
ATOM     30  H5  UNK     1       1.790  36.430 233.970  1.00  0.00     0.183 HD
ENDBRANCH  16  17
ENDBRANCH   1  16
TORSDOF 5
ENDMDL
MODEL 4
REMARK VINA RESULT:      -6.9      2.810      4.668
REMARK  5 active torsions:
REMARK  status: ('A' for Active; 'I' for Inactive)
REMARK    1  A    between atoms: N1_3  and  C10_19 
REMARK    2  A    between atoms: N2_4  and  C13_22 
REMARK       I    between atoms: N3_5  and  C18_27 
REMARK    3  A    between atoms: C10_19  and  C11_20 
REMARK    4  A    between atoms: C11_20  and  C12_21 
REMARK    5  A    between atoms: C12_21  and  C13_22 
ROOT
ATOM      1  C12 UNK     1      -2.760  34.199 234.126  1.00  0.00     0.032 C 
ENDROOT
BRANCH   1   2
ATOM      2  C11 UNK     1      -2.283  35.088 235.280  1.00  0.00     0.022 C 
BRANCH   2   3
ATOM      3  C10 UNK     1      -1.801  36.455 234.807  1.00  0.00     0.135 C 
BRANCH   3   4
ATOM      4  N1  UNK     1      -0.503  36.812 235.369  1.00  0.00    -0.288 N 
ATOM      5  C8  UNK     1       0.632  36.464 234.612  1.00  0.00     0.227 C 
ATOM      6  O1  UNK     1       0.588  35.942 233.495  1.00  0.00    -0.273 OA
ATOM      7  C6  UNK     1       1.971  36.832 235.210  1.00  0.00     0.113 C 
ATOM      8  C1  UNK     1       1.946  36.900 236.739  1.00  0.00    -0.024 C 
ATOM      9  C2  UNK     1       1.784  35.519 237.397  1.00  0.00     0.010 C 
ATOM     10  C3  UNK     1       3.314  37.335 237.293  1.00  0.00     0.010 C 
ATOM     11  C7  UNK     1       0.854  37.885 237.138  1.00  0.00     0.113 C 
ATOM     12  C4  UNK     1       3.180  34.899 237.373  1.00  0.00     0.001 C 
ATOM     13  C5  UNK     1       4.162  36.066 237.294  1.00  0.00     0.001 C 
ATOM     14  C9  UNK     1      -0.504  37.513 236.589  1.00  0.00     0.227 C 
ATOM     15  O2  UNK     1      -1.521  37.879 237.181  1.00  0.00    -0.273 OA
ENDBRANCH   3   4
ENDBRANCH   2   3
ENDBRANCH   1   2
BRANCH   1  16
ATOM     16  C13 UNK     1      -3.459  35.027 233.047  1.00  0.00     0.272 C 
BRANCH  16  17
ATOM     17  N2  UNK     1      -2.771  34.876 231.766  1.00  0.00     0.091 N 
ATOM     18  C14 UNK     1      -1.645  33.942 231.893  1.00  0.00     0.292 C 
ATOM     19  C16 UNK     1      -0.949  33.731 230.546  1.00  0.00     0.171 C 
ATOM     20  N3  UNK     1      -0.562  35.019 229.960  1.00  0.00    -0.214 N 
ATOM     21  C17 UNK     1      -1.616  36.040 229.916  1.00  0.00     0.171 C 
ATOM     22  C18 UNK     1       0.438  35.063 228.982  1.00  0.00     0.679 A 
ATOM     23  C15 UNK     1      -2.288  36.177 231.284  1.00  0.00     0.292 C 
ATOM     24  N4  UNK     1       1.014  33.888 228.614  1.00  0.00    -0.202 N 
ATOM     25  N5  UNK     1       0.764  36.279 228.467  1.00  0.00    -0.202 N 
ATOM     26  C19 UNK     1       1.973  33.967 227.669  1.00  0.00     0.107 A 
ATOM     27  H4  UNK     1       0.736  32.998 229.029  1.00  0.00     0.183 HD
ATOM     28  C21 UNK     1       2.377  35.149 227.084  1.00  0.00     0.035 A 
ATOM     29  C20 UNK     1       1.731  36.286 227.526  1.00  0.00     0.107 A 
ATOM     30  H5  UNK     1       0.304  37.137 228.774  1.00  0.00     0.183 HD
ENDBRANCH  16  17
ENDBRANCH   1  16
TORSDOF 5
ENDMDL
MODEL 5
REMARK VINA RESULT:      -6.8      1.593      2.020
REMARK  5 active torsions:
REMARK  status: ('A' for Active; 'I' for Inactive)
REMARK    1  A    between atoms: N1_3  and  C10_19 
REMARK    2  A    between atoms: N2_4  and  C13_22 
REMARK       I    between atoms: N3_5  and  C18_27 
REMARK    3  A    between atoms: C10_19  and  C11_20 
REMARK    4  A    between atoms: C11_20  and  C12_21 
REMARK    5  A    between atoms: C12_21  and  C13_22 
ROOT
ATOM      1  C12 UNK     1      -1.621  34.872 230.465  1.00  0.00     0.032 C 
ENDROOT
BRANCH   1   2
ATOM      2  C11 UNK     1      -2.026  35.259 231.892  1.00  0.00     0.022 C 
BRANCH   2   3
ATOM      3  C10 UNK     1      -1.162  36.378 232.464  1.00  0.00     0.135 C 
BRANCH   3   4
ATOM      4  N1  UNK     1      -0.286  35.913 233.533  1.00  0.00    -0.288 N 
ATOM      5  C8  UNK     1      -0.812  35.938 234.838  1.00  0.00     0.227 C 
ATOM      6  O1  UNK     1      -1.969  36.265 235.114  1.00  0.00    -0.273 OA
ATOM      7  C6  UNK     1       0.110  35.462 235.938  1.00  0.00     0.113 C 
ATOM      8  C1  UNK     1       1.591  35.656 235.605  1.00  0.00    -0.024 C 
ATOM      9  C2  UNK     1       2.012  37.136 235.592  1.00  0.00     0.010 C 
ATOM     10  C3  UNK     1       2.486  35.103 236.728  1.00  0.00     0.010 C 
ATOM     11  C7  UNK     1       1.863  34.945 234.286  1.00  0.00     0.113 C 
ATOM     12  C4  UNK     1       2.217  37.506 237.060  1.00  0.00     0.001 C 
ATOM     13  C5  UNK     1       2.509  36.198 237.792  1.00  0.00     0.001 C 
ATOM     14  C9  UNK     1       0.984  35.437 233.159  1.00  0.00     0.227 C 
ATOM     15  O2  UNK     1       1.380  35.347 231.995  1.00  0.00    -0.273 OA
ENDBRANCH   3   4
ENDBRANCH   2   3
ENDBRANCH   1   2
BRANCH   1  16
ATOM     16  C13 UNK     1      -2.565  35.495 229.437  1.00  0.00     0.272 C 
BRANCH  16  17
ATOM     17  N2  UNK     1      -1.850  36.476 228.622  1.00  0.00     0.091 N 
ATOM     18  C14 UNK     1      -0.400  36.338 228.804  1.00  0.00     0.292 C 
ATOM     19  C16 UNK     1       0.363  37.322 227.913  1.00  0.00     0.171 C 
ATOM     20  N3  UNK     1      -0.113  38.691 228.134  1.00  0.00    -0.214 N 
ATOM     21  C17 UNK     1      -1.569  38.873 228.086  1.00  0.00     0.171 C 
ATOM     22  C18 UNK     1       0.697  39.774 227.774  1.00  0.00     0.679 A 
ATOM     23  C15 UNK     1      -2.269  37.840 228.971  1.00  0.00     0.292 C 
ATOM     24  N4  UNK     1       1.911  39.500 227.227  1.00  0.00    -0.202 N 
ATOM     25  N5  UNK     1       0.213  41.026 227.997  1.00  0.00    -0.202 N 
ATOM     26  C19 UNK     1       2.666  40.567 226.892  1.00  0.00     0.107 A 
ATOM     27  H4  UNK     1       2.232  38.543 227.079  1.00  0.00     0.183 HD
ATOM     28  C21 UNK     1       2.268  41.875 227.076  1.00  0.00     0.035 A 
ATOM     29  C20 UNK     1       1.019  42.047 227.638  1.00  0.00     0.107 A 
ATOM     30  H5  UNK     1      -0.706  41.184 228.411  1.00  0.00     0.183 HD
ENDBRANCH  16  17
ENDBRANCH   1  16
TORSDOF 5
ENDMDL
MODEL 6
REMARK VINA RESULT:      -6.8      1.170      2.353
REMARK  5 active torsions:
REMARK  status: ('A' for Active; 'I' for Inactive)
REMARK    1  A    between atoms: N1_3  and  C10_19 
REMARK    2  A    between atoms: N2_4  and  C13_22 
REMARK       I    between atoms: N3_5  and  C18_27 
REMARK    3  A    between atoms: C10_19  and  C11_20 
REMARK    4  A    between atoms: C11_20  and  C12_21 
REMARK    5  A    between atoms: C12_21  and  C13_22 
ROOT
ATOM      1  C12 UNK     1       0.943  34.159 229.919  1.00  0.00     0.032 C 
ENDROOT
BRANCH   1   2
ATOM      2  C11 UNK     1       0.635  34.051 231.416  1.00  0.00     0.022 C 
BRANCH   2   3
ATOM      3  C10 UNK     1       1.091  35.279 232.198  1.00  0.00     0.135 C 
BRANCH   3   4
ATOM      4  N1  UNK     1       0.327  35.471 233.426  1.00  0.00    -0.288 N 
ATOM      5  C8  UNK     1       0.873  34.926 234.603  1.00  0.00     0.227 C 
ATOM      6  O1  UNK     1       1.968  34.360 234.664  1.00  0.00    -0.273 OA
ATOM      7  C6  UNK     1       0.067  35.125 235.867  1.00  0.00     0.113 C 
ATOM      8  C1  UNK     1      -1.434  35.272 235.603  1.00  0.00    -0.024 C 
ATOM      9  C2  UNK     1      -2.090  33.964 235.129  1.00  0.00     0.010 C 
ATOM     10  C3  UNK     1      -2.200  35.531 236.912  1.00  0.00     0.010 C 
ATOM     11  C7  UNK     1      -1.618  36.423 234.623  1.00  0.00     0.113 C 
ATOM     12  C4  UNK     1      -2.317  33.148 236.401  1.00  0.00     0.001 C 
ATOM     13  C5  UNK     1      -2.375  34.155 237.548  1.00  0.00     0.001 C 
ATOM     14  C9  UNK     1      -0.857  36.225 233.332  1.00  0.00     0.227 C 
ATOM     15  O2  UNK     1      -1.260  36.764 232.299  1.00  0.00    -0.273 OA
ENDBRANCH   3   4
ENDBRANCH   2   3
ENDBRANCH   1   2
BRANCH   1  16
ATOM     16  C13 UNK     1      -0.322  34.470 229.118  1.00  0.00     0.272 C 
BRANCH  16  17
ATOM     17  N2  UNK     1      -0.146  35.704 228.352  1.00  0.00     0.091 N 
ATOM     18  C14 UNK     1       1.279  36.027 228.216  1.00  0.00     0.292 C 
ATOM     19  C16 UNK     1       1.480  37.286 227.368  1.00  0.00     0.171 C 
ATOM     20  N3  UNK     1       0.689  38.398 227.905  1.00  0.00    -0.214 N 
ATOM     21  C17 UNK     1      -0.723  38.101 228.177  1.00  0.00     0.171 C 
ATOM     22  C18 UNK     1       1.032  39.715 227.576  1.00  0.00     0.679 A 
ATOM     23  C15 UNK     1      -0.852  36.817 228.999  1.00  0.00     0.292 C 
ATOM     24  N4  UNK     1       2.104  39.904 226.761  1.00  0.00    -0.202 N 
ATOM     25  N5  UNK     1       0.269  40.714 228.096  1.00  0.00    -0.202 N 
ATOM     26  C19 UNK     1       2.406  41.185 226.465  1.00  0.00     0.107 A 
ATOM     27  H4  UNK     1       2.647  39.122 226.395  1.00  0.00     0.183 HD
ATOM     28  C21 UNK     1       1.697  42.269 226.940  1.00  0.00     0.035 A 
ATOM     29  C20 UNK     1       0.627  41.971 227.759  1.00  0.00     0.107 A 
ATOM     30  H5  UNK     1      -0.527  40.525 228.705  1.00  0.00     0.183 HD
ENDBRANCH  16  17
ENDBRANCH   1  16
TORSDOF 5
ENDMDL
MODEL 7
REMARK VINA RESULT:      -6.8      3.228      4.311
REMARK  5 active torsions:
REMARK  status: ('A' for Active; 'I' for Inactive)
REMARK    1  A    between atoms: N1_3  and  C10_19 
REMARK    2  A    between atoms: N2_4  and  C13_22 
REMARK       I    between atoms: N3_5  and  C18_27 
REMARK    3  A    between atoms: C10_19  and  C11_20 
REMARK    4  A    between atoms: C11_20  and  C12_21 
REMARK    5  A    between atoms: C12_21  and  C13_22 
ROOT
ATOM      1  C12 UNK     1      -1.904  35.732 231.759  1.00  0.00     0.032 C 
ENDROOT
BRANCH   1   2
ATOM      2  C11 UNK     1      -1.680  36.583 233.015  1.00  0.00     0.022 C 
BRANCH   2   3
ATOM      3  C10 UNK     1      -1.268  35.747 234.222  1.00  0.00     0.135 C 
BRANCH   3   4
ATOM      4  N1  UNK     1      -0.160  36.344 234.959  1.00  0.00    -0.288 N 
ATOM      5  C8  UNK     1       1.120  36.220 234.387  1.00  0.00     0.227 C 
ATOM      6  O1  UNK     1       1.343  35.700 233.291  1.00  0.00    -0.273 OA
ATOM      7  C6  UNK     1       2.261  36.835 235.166  1.00  0.00     0.113 C 
ATOM      8  C1  UNK     1       1.995  36.895 236.672  1.00  0.00    -0.024 C 
ATOM      9  C2  UNK     1       1.999  35.508 237.337  1.00  0.00     0.010 C 
ATOM     10  C3  UNK     1       3.158  37.582 237.410  1.00  0.00     0.010 C 
ATOM     11  C7  UNK     1       0.690  37.653 236.879  1.00  0.00     0.113 C 
ATOM     12  C4  UNK     1       3.475  35.166 237.536  1.00  0.00     0.001 C 
ATOM     13  C5  UNK     1       4.220  36.498 237.570  1.00  0.00     0.001 C 
ATOM     14  C9  UNK     1      -0.476  37.030 236.146  1.00  0.00     0.227 C 
ATOM     15  O2  UNK     1      -1.620  37.195 236.572  1.00  0.00    -0.273 OA
ENDBRANCH   3   4
ENDBRANCH   2   3
ENDBRANCH   1   2
BRANCH   1  16
ATOM     16  C13 UNK     1      -1.156  36.316 230.560  1.00  0.00     0.272 C 
BRANCH  16  17
ATOM     17  N2  UNK     1      -2.026  37.226 229.815  1.00  0.00     0.091 N 
ATOM     18  C14 UNK     1      -2.918  36.473 228.925  1.00  0.00     0.292 C 
ATOM     19  C16 UNK     1      -3.872  37.410 228.180  1.00  0.00     0.171 C 
ATOM     20  N3  UNK     1      -3.122  38.460 227.483  1.00  0.00    -0.214 N 
ATOM     21  C17 UNK     1      -2.123  39.170 228.291  1.00  0.00     0.171 C 
ATOM     22  C18 UNK     1      -3.716  39.147 226.419  1.00  0.00     0.679 A 
ATOM     23  C15 UNK     1      -1.225  38.176 229.031  1.00  0.00     0.292 C 
ATOM     24  N4  UNK     1      -4.986  38.802 226.074  1.00  0.00    -0.202 N 
ATOM     25  N5  UNK     1      -2.982  40.113 225.803  1.00  0.00    -0.202 N 
ATOM     26  C19 UNK     1      -5.528  39.485 225.045  1.00  0.00     0.107 A 
ATOM     27  H4  UNK     1      -5.498  38.070 226.566  1.00  0.00     0.183 HD
ATOM     28  C21 UNK     1      -4.869  40.481 224.354  1.00  0.00     0.035 A 
ATOM     29  C20 UNK     1      -3.586  40.756 224.781  1.00  0.00     0.107 A 
ATOM     30  H5  UNK     1      -2.032  40.338 226.095  1.00  0.00     0.183 HD
ENDBRANCH  16  17
ENDBRANCH   1  16
TORSDOF 5
ENDMDL
MODEL 8
REMARK VINA RESULT:      -6.7      1.926      2.323
REMARK  5 active torsions:
REMARK  status: ('A' for Active; 'I' for Inactive)
REMARK    1  A    between atoms: N1_3  and  C10_19 
REMARK    2  A    between atoms: N2_4  and  C13_22 
REMARK       I    between atoms: N3_5  and  C18_27 
REMARK    3  A    between atoms: C10_19  and  C11_20 
REMARK    4  A    between atoms: C11_20  and  C12_21 
REMARK    5  A    between atoms: C12_21  and  C13_22 
ROOT
ATOM      1  C12 UNK     1       1.071  34.358 231.001  1.00  0.00     0.032 C 
ENDROOT
BRANCH   1   2
ATOM      2  C11 UNK     1       0.224  33.997 232.227  1.00  0.00     0.022 C 
BRANCH   2   3
ATOM      3  C10 UNK     1      -0.160  35.220 233.054  1.00  0.00     0.135 C 
BRANCH   3   4
ATOM      4  N1  UNK     1       0.426  35.194 234.390  1.00  0.00    -0.288 N 
ATOM      5  C8  UNK     1       1.645  35.878 234.560  1.00  0.00     0.227 C 
ATOM      6  O1  UNK     1       2.201  36.536 233.677  1.00  0.00    -0.273 OA
ATOM      7  C6  UNK     1       2.245  35.835 235.947  1.00  0.00     0.113 C 
ATOM      8  C1  UNK     1       1.843  34.587 236.736  1.00  0.00    -0.024 C 
ATOM      9  C2  UNK     1       2.477  33.299 236.184  1.00  0.00     0.010 C 
ATOM     10  C3  UNK     1       2.431  34.621 238.158  1.00  0.00     0.010 C 
ATOM     11  C7  UNK     1       0.321  34.536 236.773  1.00  0.00     0.113 C 
ATOM     12  C4  UNK     1       3.900  33.283 236.740  1.00  0.00     0.001 C 
ATOM     13  C5  UNK     1       3.872  34.144 238.002  1.00  0.00     0.001 C 
ATOM     14  C9  UNK     1      -0.301  34.532 235.396  1.00  0.00     0.227 C 
ATOM     15  O2  UNK     1      -1.410  34.019 235.231  1.00  0.00    -0.273 OA
ENDBRANCH   3   4
ENDBRANCH   2   3
ENDBRANCH   1   2
BRANCH   1  16
ATOM     16  C13 UNK     1       0.353  33.978 229.706  1.00  0.00     0.272 C 
BRANCH  16  17
ATOM     17  N2  UNK     1       0.208  35.150 228.844  1.00  0.00     0.091 N 
ATOM     18  C14 UNK     1       1.519  35.751 228.569  1.00  0.00     0.292 C 
ATOM     19  C16 UNK     1       1.388  36.947 227.621  1.00  0.00     0.171 C 
ATOM     20  N3  UNK     1       0.414  37.911 228.142  1.00  0.00    -0.214 N 
ATOM     21  C17 UNK     1      -0.880  37.350 228.551  1.00  0.00     0.171 C 
ATOM     22  C18 UNK     1       0.444  39.237 227.696  1.00  0.00     0.679 A 
ATOM     23  C15 UNK     1      -0.675  36.143 229.469  1.00  0.00     0.292 C 
ATOM     24  N4  UNK     1       1.393  39.575 226.783  1.00  0.00    -0.202 N 
ATOM     25  N5  UNK     1      -0.480  40.096 228.206  1.00  0.00    -0.202 N 
ATOM     26  C19 UNK     1       1.393  40.861 226.375  1.00  0.00     0.107 A 
ATOM     27  H4  UNK     1       2.066  38.896 226.429  1.00  0.00     0.183 HD
ATOM     28  C21 UNK     1       0.501  41.810 226.830  1.00  0.00     0.035 A 
ATOM     29  C20 UNK     1      -0.423  41.366 227.754  1.00  0.00     0.107 A 
ATOM     30  H5  UNK     1      -1.175  39.798 228.891  1.00  0.00     0.183 HD
ENDBRANCH  16  17
ENDBRANCH   1  16
TORSDOF 5
ENDMDL
MODEL 9
REMARK VINA RESULT:      -6.7      3.452      8.942
REMARK  5 active torsions:
REMARK  status: ('A' for Active; 'I' for Inactive)
REMARK    1  A    between atoms: N1_3  and  C10_19 
REMARK    2  A    between atoms: N2_4  and  C13_22 
REMARK       I    between atoms: N3_5  and  C18_27 
REMARK    3  A    between atoms: C10_19  and  C11_20 
REMARK    4  A    between atoms: C11_20  and  C12_21 
REMARK    5  A    between atoms: C12_21  and  C13_22 
ROOT
ATOM      1  C12 UNK     1      -1.935  35.762 234.563  1.00  0.00     0.032 C 
ENDROOT
BRANCH   1   2
ATOM      2  C11 UNK     1      -2.058  36.112 233.076  1.00  0.00     0.022 C 
BRANCH   2   3
ATOM      3  C10 UNK     1      -1.845  34.903 232.170  1.00  0.00     0.135 C 
BRANCH   3   4
ATOM      4  N1  UNK     1      -0.783  35.121 231.194  1.00  0.00    -0.288 N 
ATOM      5  C8  UNK     1      -1.167  35.661 229.952  1.00  0.00     0.227 C 
ATOM      6  O1  UNK     1      -2.316  36.011 229.672  1.00  0.00    -0.273 OA
ATOM      7  C6  UNK     1      -0.058  35.872 228.946  1.00  0.00     0.113 C 
ATOM      8  C1  UNK     1       1.118  34.912 229.139  1.00  0.00    -0.024 C 
ATOM      9  C2  UNK     1       0.769  33.458 228.777  1.00  0.00     0.010 C 
ATOM     10  C3  UNK     1       2.242  35.207 228.130  1.00  0.00     0.010 C 
ATOM     11  C7  UNK     1       1.611  35.070 230.571  1.00  0.00     0.113 C 
ATOM     12  C4  UNK     1       0.867  33.391 227.254  1.00  0.00     0.001 C 
ATOM     13  C5  UNK     1       1.804  34.524 226.838  1.00  0.00     0.001 C 
ATOM     14  C9  UNK     1       0.530  34.818 231.597  1.00  0.00     0.227 C 
ATOM     15  O2  UNK     1       0.841  34.429 232.725  1.00  0.00    -0.273 OA
ENDBRANCH   3   4
ENDBRANCH   2   3
ENDBRANCH   1   2
BRANCH   1  16
ATOM     16  C13 UNK     1      -1.265  36.895 235.341  1.00  0.00     0.272 C 
BRANCH  16  17
ATOM     17  N2  UNK     1       0.062  36.482 235.796  1.00  0.00     0.091 N 
ATOM     18  C14 UNK     1       0.000  35.158 236.427  1.00  0.00     0.292 C 
ATOM     19  C16 UNK     1       1.392  34.688 236.858  1.00  0.00     0.171 C 
ATOM     20  N3  UNK     1       2.035  35.697 237.707  1.00  0.00    -0.214 N 
ATOM     21  C17 UNK     1       2.021  37.069 237.184  1.00  0.00     0.171 C 
ATOM     22  C18 UNK     1       3.088  35.324 238.550  1.00  0.00     0.679 A 
ATOM     23  C15 UNK     1       0.609  37.461 236.744  1.00  0.00     0.292 C 
ATOM     24  N4  UNK     1       3.472  34.020 238.543  1.00  0.00    -0.202 N 
ATOM     25  N5  UNK     1       3.655  36.294 239.318  1.00  0.00    -0.202 N 
ATOM     26  C19 UNK     1       4.490  33.697 239.367  1.00  0.00     0.107 A 
ATOM     27  H4  UNK     1       3.017  33.327 237.949  1.00  0.00     0.183 HD
ATOM     28  C21 UNK     1       5.131  34.604 240.186  1.00  0.00     0.035 A 
ATOM     29  C20 UNK     1       4.667  35.901 240.118  1.00  0.00     0.107 A 
ATOM     30  H5  UNK     1       3.333  37.262 239.290  1.00  0.00     0.183 HD
ENDBRANCH  16  17
ENDBRANCH   1  16
TORSDOF 5
ENDMDL
