MODEL 1
REMARK VINA RESULT:      -6.0      0.000      0.000
REMARK  4 active torsions:
REMARK  status: ('A' for Active; 'I' for Inactive)
REMARK    1  A    between atoms: S1_1  and  C1_6 
REMARK    2  A    between atoms: S1_1  and  C2_7 
REMARK    3  A    between atoms: N1_4  and  C11_16 
REMARK    4  A    between atoms: N2_5  and  C12_17 
ROOT
ATOM      1  S1  UNK     1      -0.521  41.257 227.591  1.00  0.00     0.206 S 
ATOM      2  O1  UNK     1      -0.563  41.643 228.994  1.00  0.00    -0.217 OA
ATOM      3  O2  UNK     1      -0.536  42.285 226.557  1.00  0.00    -0.217 OA
ENDROOT
BRANCH   1   4
ATOM      4  C1  UNK     1       0.906  40.271 227.394  1.00  0.00     0.064 A 
ATOM      5  C3  UNK     1       2.161  40.871 227.298  1.00  0.00     0.026 A 
ATOM      6  C7  UNK     1       3.301  40.083 227.141  1.00  0.00     0.030 A 
ATOM      7  C11 UNK     1       3.186  38.693 227.080  1.00  0.00     0.025 A 
ATOM      8  C9  UNK     1       1.930  38.094 227.175  1.00  0.00     0.030 A 
ATOM      9  C5  UNK     1       0.791  38.882 227.333  1.00  0.00     0.026 A 
BRANCH   7  10
ATOM     10  N1  UNK     1       4.338  37.896 226.922  1.00  0.00    -0.399 N 
ATOM     11  H9  UNK     1       5.244  38.332 226.807  1.00  0.00     0.156 HD
ATOM     12  H10 UNK     1       4.261  36.888 226.924  1.00  0.00     0.156 HD
ENDBRANCH   7  10
ENDBRANCH   1   4
BRANCH   1  13
ATOM     13  C2  UNK     1      -1.946  40.256 227.262  1.00  0.00     0.064 A 
ATOM     14  C4  UNK     1      -2.567  40.357 226.032  1.00  0.00     0.026 A 
ATOM     15  C8  UNK     1      -3.688  39.568 225.772  1.00  0.00     0.030 A 
ATOM     16  C12 UNK     1      -4.166  38.693 226.748  1.00  0.00     0.025 A 
ATOM     17  C10 UNK     1      -3.523  38.608 227.983  1.00  0.00     0.030 A 
ATOM     18  C6  UNK     1      -2.402  39.396 228.242  1.00  0.00     0.026 A 
BRANCH  16  19
ATOM     19  N2  UNK     1      -5.299  37.896 226.486  1.00  0.00    -0.399 N 
ATOM     20  H11 UNK     1      -5.722  37.357 227.231  1.00  0.00     0.156 HD
ATOM     21  H12 UNK     1      -5.688  37.859 225.553  1.00  0.00     0.156 HD
ENDBRANCH  16  19
ENDBRANCH   1  13
TORSDOF 4
ENDMDL
MODEL 2
REMARK VINA RESULT:      -5.9      2.280      2.973
REMARK  4 active torsions:
REMARK  status: ('A' for Active; 'I' for Inactive)
REMARK    1  A    between atoms: S1_1  and  C1_6 
REMARK    2  A    between atoms: S1_1  and  C2_7 
REMARK    3  A    between atoms: N1_4  and  C11_16 
REMARK    4  A    between atoms: N2_5  and  C12_17 
ROOT
ATOM      1  S1  UNK     1      -0.689  40.675 227.240  1.00  0.00     0.206 S 
ATOM      2  O1  UNK     1      -1.541  41.698 227.828  1.00  0.00    -0.217 OA
ATOM      3  O2  UNK     1      -0.690  40.474 225.796  1.00  0.00    -0.217 OA
ENDROOT
BRANCH   1   4
ATOM      4  C1  UNK     1       0.939  41.028 227.764  1.00  0.00     0.064 A 
ATOM      5  C3  UNK     1       2.026  40.549 227.035  1.00  0.00     0.026 A 
ATOM      6  C7  UNK     1       3.327  40.832 227.455  1.00  0.00     0.030 A 
ATOM      7  C11 UNK     1       3.538  41.595 228.604  1.00  0.00     0.025 A 
ATOM      8  C9  UNK     1       2.450  42.074 229.333  1.00  0.00     0.030 A 
ATOM      9  C5  UNK     1       1.151  41.791 228.913  1.00  0.00     0.026 A 
BRANCH   7  10
ATOM     10  N1  UNK     1       4.852  41.882 229.028  1.00  0.00    -0.399 N 
ATOM     11  H9  UNK     1       5.640  41.445 228.567  1.00  0.00     0.156 HD
ATOM     12  H10 UNK     1       5.009  42.525 229.792  1.00  0.00     0.156 HD
ENDBRANCH   7  10
ENDBRANCH   1   4
BRANCH   1  13
ATOM     13  C2  UNK     1      -1.171  39.111 227.920  1.00  0.00     0.064 A 
ATOM     14  C4  UNK     1      -2.512  38.865 228.150  1.00  0.00     0.026 A 
ATOM     15  C8  UNK     1      -2.892  37.634 228.686  1.00  0.00     0.030 A 
ATOM     16  C12 UNK     1      -1.924  36.673 228.981  1.00  0.00     0.025 A 
ATOM     17  C10 UNK     1      -0.577  36.943 228.740  1.00  0.00     0.030 A 
ATOM     18  C6  UNK     1      -0.197  38.173 228.205  1.00  0.00     0.026 A 
BRANCH  16  19
ATOM     19  N2  UNK     1      -2.308  35.428 229.521  1.00  0.00    -0.399 N 
ATOM     20  H11 UNK     1      -1.788  35.029 230.291  1.00  0.00     0.156 HD
ATOM     21  H12 UNK     1      -3.102  34.933 229.138  1.00  0.00     0.156 HD
ENDBRANCH  16  19
ENDBRANCH   1  13
TORSDOF 4
ENDMDL
MODEL 3
REMARK VINA RESULT:      -5.9      2.272      5.622
REMARK  4 active torsions:
REMARK  status: ('A' for Active; 'I' for Inactive)
REMARK    1  A    between atoms: S1_1  and  C1_6 
REMARK    2  A    between atoms: S1_1  and  C2_7 
REMARK    3  A    between atoms: N1_4  and  C11_16 
REMARK    4  A    between atoms: N2_5  and  C12_17 
ROOT
ATOM      1  S1  UNK     1      -0.732  40.661 227.248  1.00  0.00     0.206 S 
ATOM      2  O1  UNK     1      -0.724  40.509 225.800  1.00  0.00    -0.217 OA
ATOM      3  O2  UNK     1      -1.550  41.699 227.863  1.00  0.00    -0.217 OA
ENDROOT
BRANCH   1   4
ATOM      4  C1  UNK     1      -1.192  39.109 227.903  1.00  0.00     0.064 A 
ATOM      5  C3  UNK     1      -0.213  38.172 228.231  1.00  0.00     0.026 A 
ATOM      6  C7  UNK     1      -0.582  36.933 228.755  1.00  0.00     0.030 A 
ATOM      7  C11 UNK     1      -1.930  36.630 228.950  1.00  0.00     0.025 A 
ATOM      8  C9  UNK     1      -2.909  37.568 228.620  1.00  0.00     0.030 A 
ATOM      9  C5  UNK     1      -2.540  38.807 228.098  1.00  0.00     0.026 A 
BRANCH   7  10
ATOM     10  N1  UNK     1      -2.302  35.378 229.479  1.00  0.00    -0.399 N 
ATOM     11  H9  UNK     1      -1.614  34.643 229.574  1.00  0.00     0.156 HD
ATOM     12  H10 UNK     1      -3.258  35.213 229.765  1.00  0.00     0.156 HD
ENDBRANCH   7  10
ENDBRANCH   1   4
BRANCH   1  13
ATOM     13  C2  UNK     1       0.926  41.019 227.763  1.00  0.00     0.064 A 
ATOM     14  C4  UNK     1       1.980  40.537 227.011  1.00  0.00     0.026 A 
ATOM     15  C8  UNK     1       3.286  40.819 227.416  1.00  0.00     0.030 A 
ATOM     16  C12 UNK     1       3.511  41.578 228.566  1.00  0.00     0.025 A 
ATOM     17  C10 UNK     1       2.431  42.054 229.309  1.00  0.00     0.030 A 
ATOM     18  C6  UNK     1       1.126  41.772 228.904  1.00  0.00     0.026 A 
BRANCH  16  19
ATOM     19  N2  UNK     1       4.829  41.864 228.975  1.00  0.00    -0.399 N 
ATOM     20  H11 UNK     1       5.173  42.814 228.946  1.00  0.00     0.156 HD
ATOM     21  H12 UNK     1       5.433  41.118 229.294  1.00  0.00     0.156 HD
ENDBRANCH  16  19
ENDBRANCH   1  13
TORSDOF 4
ENDMDL
MODEL 4
REMARK VINA RESULT:      -5.8      2.075      2.885
REMARK  4 active torsions:
REMARK  status: ('A' for Active; 'I' for Inactive)
REMARK    1  A    between atoms: S1_1  and  C1_6 
REMARK    2  A    between atoms: S1_1  and  C2_7 
REMARK    3  A    between atoms: N1_4  and  C11_16 
REMARK    4  A    between atoms: N2_5  and  C12_17 
ROOT
ATOM      1  S1  UNK     1      -1.398  40.011 228.284  1.00  0.00     0.206 S 
ATOM      2  O1  UNK     1      -1.455  38.603 228.653  1.00  0.00    -0.217 OA
ATOM      3  O2  UNK     1      -2.095  41.000 229.096  1.00  0.00    -0.217 OA
ENDROOT
BRANCH   1   4
ATOM      4  C1  UNK     1       0.295  40.430 228.204  1.00  0.00     0.064 A 
ATOM      5  C3  UNK     1       1.178  39.634 227.475  1.00  0.00     0.026 A 
ATOM      6  C7  UNK     1       2.530  39.970 227.411  1.00  0.00     0.030 A 
ATOM      7  C11 UNK     1       3.000  41.102 228.078  1.00  0.00     0.025 A 
ATOM      8  C9  UNK     1       2.117  41.898 228.808  1.00  0.00     0.030 A 
ATOM      9  C5  UNK     1       0.765  41.563 228.871  1.00  0.00     0.026 A 
BRANCH   7  10
ATOM     10  N1  UNK     1       4.367  41.442 228.013  1.00  0.00    -0.399 N 
ATOM     11  H9  UNK     1       4.950  41.355 228.835  1.00  0.00     0.156 HD
ATOM     12  H10 UNK     1       4.767  41.772 227.144  1.00  0.00     0.156 HD
ENDBRANCH   7  10
ENDBRANCH   1   4
BRANCH   1  13
ATOM     13  C2  UNK     1      -2.094  40.174 226.663  1.00  0.00     0.064 A 
ATOM     14  C4  UNK     1      -3.246  39.475 226.354  1.00  0.00     0.026 A 
ATOM     15  C8  UNK     1      -3.795  39.604 225.078  1.00  0.00     0.030 A 
ATOM     16  C12 UNK     1      -3.182  40.431 224.135  1.00  0.00     0.025 A 
ATOM     17  C10 UNK     1      -2.020  41.127 224.469  1.00  0.00     0.030 A 
ATOM     18  C6  UNK     1      -1.472  40.998 225.745  1.00  0.00     0.026 A 
BRANCH  16  19
ATOM     19  N2  UNK     1      -3.737  40.562 222.846  1.00  0.00    -0.399 N 
ATOM     20  H11 UNK     1      -3.729  39.776 222.209  1.00  0.00     0.156 HD
ATOM     21  H12 UNK     1      -4.141  41.442 222.555  1.00  0.00     0.156 HD
ENDBRANCH  16  19
ENDBRANCH   1  13
TORSDOF 4
ENDMDL
MODEL 5
REMARK VINA RESULT:      -5.7      8.916     10.782
REMARK  4 active torsions:
REMARK  status: ('A' for Active; 'I' for Inactive)
REMARK    1  A    between atoms: S1_1  and  C1_6 
REMARK    2  A    between atoms: S1_1  and  C2_7 
REMARK    3  A    between atoms: N1_4  and  C11_16 
REMARK    4  A    between atoms: N2_5  and  C12_17 
ROOT
ATOM      1  S1  UNK     1      -0.248  34.492 236.161  1.00  0.00     0.206 S 
ATOM      2  O1  UNK     1      -1.194  34.679 237.252  1.00  0.00    -0.217 OA
ATOM      3  O2  UNK     1       0.245  33.156 235.851  1.00  0.00    -0.217 OA
ENDROOT
BRANCH   1   4
ATOM      4  C1  UNK     1      -0.999  35.168 234.737  1.00  0.00     0.064 A 
ATOM      5  C3  UNK     1      -0.223  35.833 233.788  1.00  0.00     0.026 A 
ATOM      6  C7  UNK     1      -0.824  36.373 232.651  1.00  0.00     0.030 A 
ATOM      7  C11 UNK     1      -2.200  36.247 232.462  1.00  0.00     0.025 A 
ATOM      8  C9  UNK     1      -2.976  35.581 233.412  1.00  0.00     0.030 A 
ATOM      9  C5  UNK     1      -2.376  35.042 234.548  1.00  0.00     0.026 A 
BRANCH   7  10
ATOM     10  N1  UNK     1      -2.807  36.791 231.312  1.00  0.00    -0.399 N 
ATOM     11  H9  UNK     1      -2.742  36.306 230.426  1.00  0.00     0.156 HD
ATOM     12  H10 UNK     1      -3.309  37.668 231.371  1.00  0.00     0.156 HD
ENDBRANCH   7  10
ENDBRANCH   1   4
BRANCH   1  13
ATOM     13  C2  UNK     1       1.203  35.439 236.535  1.00  0.00     0.064 A 
ATOM     14  C4  UNK     1       2.445  34.900 236.258  1.00  0.00     0.026 A 
ATOM     15  C8  UNK     1       3.587  35.646 236.552  1.00  0.00     0.030 A 
ATOM     16  C12 UNK     1       3.465  36.917 237.116  1.00  0.00     0.025 A 
ATOM     17  C10 UNK     1       2.201  37.440 237.386  1.00  0.00     0.030 A 
ATOM     18  C6  UNK     1       1.059  36.695 237.093  1.00  0.00     0.026 A 
BRANCH  16  19
ATOM     19  N2  UNK     1       4.619  37.671 237.412  1.00  0.00    -0.399 N 
ATOM     20  H11 UNK     1       5.074  38.206 236.684  1.00  0.00     0.156 HD
ATOM     21  H12 UNK     1       4.994  37.675 238.351  1.00  0.00     0.156 HD
ENDBRANCH  16  19
ENDBRANCH   1  13
TORSDOF 4
ENDMDL
MODEL 6
REMARK VINA RESULT:      -5.7      8.903      9.589
REMARK  4 active torsions:
REMARK  status: ('A' for Active; 'I' for Inactive)
REMARK    1  A    between atoms: S1_1  and  C1_6 
REMARK    2  A    between atoms: S1_1  and  C2_7 
REMARK    3  A    between atoms: N1_4  and  C11_16 
REMARK    4  A    between atoms: N2_5  and  C12_17 
ROOT
ATOM      1  S1  UNK     1      -0.299  34.567 236.210  1.00  0.00     0.206 S 
ATOM      2  O1  UNK     1       0.129  33.206 235.917  1.00  0.00    -0.217 OA
ATOM      3  O2  UNK     1      -1.273  34.807 237.268  1.00  0.00    -0.217 OA
ENDROOT
BRANCH   1   4
ATOM      4  C1  UNK     1       1.152  35.475 236.554  1.00  0.00     0.064 A 
ATOM      5  C3  UNK     1       2.402  34.926 236.274  1.00  0.00     0.026 A 
ATOM      6  C7  UNK     1       3.561  35.652 236.549  1.00  0.00     0.030 A 
ATOM      7  C11 UNK     1       3.469  36.929 237.104  1.00  0.00     0.025 A 
ATOM      8  C9  UNK     1       2.218  37.478 237.384  1.00  0.00     0.030 A 
ATOM      9  C5  UNK     1       1.060  36.753 237.109  1.00  0.00     0.026 A 
BRANCH   7  10
ATOM     10  N1  UNK     1       4.640  37.664 237.381  1.00  0.00    -0.399 N 
ATOM     11  H9  UNK     1       4.877  38.471 236.819  1.00  0.00     0.156 HD
ATOM     12  H10 UNK     1       5.245  37.385 238.142  1.00  0.00     0.156 HD
ENDBRANCH   7  10
ENDBRANCH   1   4
BRANCH   1  13
ATOM     13  C2  UNK     1      -1.042  35.228 234.744  1.00  0.00     0.064 A 
ATOM     14  C4  UNK     1      -0.247  35.896 233.832  1.00  0.00     0.026 A 
ATOM     15  C8  UNK     1      -0.832  36.416 232.676  1.00  0.00     0.030 A 
ATOM     16  C12 UNK     1      -2.200  36.259 232.456  1.00  0.00     0.025 A 
ATOM     17  C10 UNK     1      -2.984  35.582 233.390  1.00  0.00     0.030 A 
ATOM     18  C6  UNK     1      -2.399  35.061 234.544  1.00  0.00     0.026 A 
BRANCH  16  19
ATOM     19  N2  UNK     1      -2.791  36.784 231.289  1.00  0.00    -0.399 N 
ATOM     20  H11 UNK     1      -2.945  37.780 231.203  1.00  0.00     0.156 HD
ATOM     21  H12 UNK     1      -3.064  36.165 230.536  1.00  0.00     0.156 HD
ENDBRANCH  16  19
ENDBRANCH   1  13
TORSDOF 4
ENDMDL
MODEL 7
REMARK VINA RESULT:      -5.7      8.768     10.441
REMARK  4 active torsions:
REMARK  status: ('A' for Active; 'I' for Inactive)
REMARK    1  A    between atoms: S1_1  and  C1_6 
REMARK    2  A    between atoms: S1_1  and  C2_7 
REMARK    3  A    between atoms: N1_4  and  C11_16 
REMARK    4  A    between atoms: N2_5  and  C12_17 
ROOT
ATOM      1  S1  UNK     1       0.630  33.990 235.261  1.00  0.00     0.206 S 
ATOM      2  O1  UNK     1      -0.682  34.555 235.540  1.00  0.00    -0.217 OA
ATOM      3  O2  UNK     1       0.979  32.677 235.788  1.00  0.00    -0.217 OA
ENDROOT
BRANCH   1   4
ATOM      4  C1  UNK     1       0.799  33.971 233.523  1.00  0.00     0.064 A 
ATOM      5  C3  UNK     1       0.583  32.791 232.814  1.00  0.00     0.026 A 
ATOM      6  C7  UNK     1       0.718  32.776 231.426  1.00  0.00     0.030 A 
ATOM      7  C11 UNK     1       1.069  33.943 230.746  1.00  0.00     0.025 A 
ATOM      8  C9  UNK     1       1.286  35.124 231.456  1.00  0.00     0.030 A 
ATOM      9  C5  UNK     1       1.151  35.139 232.844  1.00  0.00     0.026 A 
BRANCH   7  10
ATOM     10  N1  UNK     1       1.205  33.929 229.344  1.00  0.00    -0.399 N 
ATOM     11  H9  UNK     1       0.440  33.609 228.763  1.00  0.00     0.156 HD
ATOM     12  H10 UNK     1       2.068  34.238 228.915  1.00  0.00     0.156 HD
ENDBRANCH   7  10
ENDBRANCH   1   4
BRANCH   1  13
ATOM     13  C2  UNK     1       1.847  35.091 235.932  1.00  0.00     0.064 A 
ATOM     14  C4  UNK     1       1.443  36.318 236.422  1.00  0.00     0.026 A 
ATOM     15  C8  UNK     1       2.400  37.184 236.951  1.00  0.00     0.030 A 
ATOM     16  C12 UNK     1       3.743  36.806 236.979  1.00  0.00     0.025 A 
ATOM     17  C10 UNK     1       4.128  35.562 236.479  1.00  0.00     0.030 A 
ATOM     18  C6  UNK     1       3.171  34.696 235.951  1.00  0.00     0.026 A 
BRANCH  16  19
ATOM     19  N2  UNK     1       4.711  37.681 237.514  1.00  0.00    -0.399 N 
ATOM     20  H11 UNK     1       5.408  37.332 238.158  1.00  0.00     0.156 HD
ATOM     21  H12 UNK     1       4.706  38.659 237.257  1.00  0.00     0.156 HD
ENDBRANCH  16  19
ENDBRANCH   1  13
TORSDOF 4
ENDMDL
MODEL 8
REMARK VINA RESULT:      -5.5      8.910      9.839
REMARK  4 active torsions:
REMARK  status: ('A' for Active; 'I' for Inactive)
REMARK    1  A    between atoms: S1_1  and  C1_6 
REMARK    2  A    between atoms: S1_1  and  C2_7 
REMARK    3  A    between atoms: N1_4  and  C11_16 
REMARK    4  A    between atoms: N2_5  and  C12_17 
ROOT
ATOM      1  S1  UNK     1       0.198  34.822 235.673  1.00  0.00     0.206 S 
ATOM      2  O1  UNK     1       0.076  33.560 236.389  1.00  0.00    -0.217 OA
ATOM      3  O2  UNK     1      -0.910  35.769 235.681  1.00  0.00    -0.217 OA
ENDROOT
BRANCH   1   4
ATOM      4  C1  UNK     1       1.625  35.608 236.300  1.00  0.00     0.064 A 
ATOM      5  C3  UNK     1       1.511  36.812 236.994  1.00  0.00     0.026 A 
ATOM      6  C7  UNK     1       2.651  37.440 237.495  1.00  0.00     0.030 A 
ATOM      7  C11 UNK     1       3.907  36.863 237.302  1.00  0.00     0.025 A 
ATOM      8  C9  UNK     1       4.021  35.659 236.608  1.00  0.00     0.030 A 
ATOM      9  C5  UNK     1       2.881  35.031 236.108  1.00  0.00     0.026 A 
BRANCH   7  10
ATOM     10  N1  UNK     1       5.059  37.497 237.809  1.00  0.00    -0.399 N 
ATOM     11  H9  UNK     1       5.600  38.114 237.218  1.00  0.00     0.156 HD
ATOM     12  H10 UNK     1       5.347  37.336 238.765  1.00  0.00     0.156 HD
ENDBRANCH   7  10
ENDBRANCH   1   4
BRANCH   1  13
ATOM     13  C2  UNK     1       0.469  34.449 233.961  1.00  0.00     0.064 A 
ATOM     14  C4  UNK     1       0.231  33.164 233.509  1.00  0.00     0.026 A 
ATOM     15  C8  UNK     1       0.443  32.871 232.162  1.00  0.00     0.030 A 
ATOM     16  C12 UNK     1       0.889  33.867 231.292  1.00  0.00     0.025 A 
ATOM     17  C10 UNK     1       1.122  35.156 231.771  1.00  0.00     0.030 A 
ATOM     18  C6  UNK     1       0.910  35.450 233.118  1.00  0.00     0.026 A 
BRANCH  16  19
ATOM     19  N2  UNK     1       1.103  33.570 229.931  1.00  0.00    -0.399 N 
ATOM     20  H11 UNK     1       0.853  32.661 229.566  1.00  0.00     0.156 HD
ATOM     21  H12 UNK     1       1.510  34.265 229.319  1.00  0.00     0.156 HD
ENDBRANCH  16  19
ENDBRANCH   1  13
TORSDOF 4
ENDMDL
MODEL 9
REMARK VINA RESULT:      -5.5     10.491     12.296
REMARK  4 active torsions:
REMARK  status: ('A' for Active; 'I' for Inactive)
REMARK    1  A    between atoms: S1_1  and  C1_6 
REMARK    2  A    between atoms: S1_1  and  C2_7 
REMARK    3  A    between atoms: N1_4  and  C11_16 
REMARK    4  A    between atoms: N2_5  and  C12_17 
ROOT
ATOM      1  S1  UNK     1       0.417  34.992 235.281  1.00  0.00     0.206 S 
ATOM      2  O1  UNK     1       0.895  33.862 234.498  1.00  0.00    -0.217 OA
ATOM      3  O2  UNK     1      -0.257  36.100 234.617  1.00  0.00    -0.217 OA
ENDROOT
BRANCH   1   4
ATOM      4  C1  UNK     1      -0.642  34.331 236.503  1.00  0.00     0.064 A 
ATOM      5  C3  UNK     1      -1.831  34.985 236.824  1.00  0.00     0.026 A 
ATOM      6  C7  UNK     1      -2.676  34.456 237.799  1.00  0.00     0.030 A 
ATOM      7  C11 UNK     1      -2.332  33.273 238.454  1.00  0.00     0.025 A 
ATOM      8  C9  UNK     1      -1.142  32.620 238.133  1.00  0.00     0.030 A 
ATOM      9  C5  UNK     1      -0.297  33.148 237.158  1.00  0.00     0.026 A 
BRANCH   7  10
ATOM     10  N1  UNK     1      -3.186  32.738 239.440  1.00  0.00    -0.399 N 
ATOM     11  H9  UNK     1      -3.247  31.736 239.569  1.00  0.00     0.156 HD
ATOM     12  H10 UNK     1      -3.740  33.355 240.019  1.00  0.00     0.156 HD
ENDBRANCH   7  10
ENDBRANCH   1   4
BRANCH   1  13
ATOM     13  C2  UNK     1       1.816  35.723 236.087  1.00  0.00     0.064 A 
ATOM     14  C4  UNK     1       1.651  36.915 236.766  1.00  0.00     0.026 A 
ATOM     15  C8  UNK     1       2.752  37.491 237.401  1.00  0.00     0.030 A 
ATOM     16  C12 UNK     1       3.997  36.863 237.344  1.00  0.00     0.025 A 
ATOM     17  C10 UNK     1       4.140  35.661 236.652  1.00  0.00     0.030 A 
ATOM     18  C6  UNK     1       3.039  35.085 236.018  1.00  0.00     0.026 A 
BRANCH  16  19
ATOM     19  N2  UNK     1       5.110  37.444 237.986  1.00  0.00    -0.399 N 
ATOM     20  H11 UNK     1       5.208  38.451 238.016  1.00  0.00     0.156 HD
ATOM     21  H12 UNK     1       5.812  36.856 238.413  1.00  0.00     0.156 HD
ENDBRANCH  16  19
ENDBRANCH   1  13
TORSDOF 4
ENDMDL
