MODEL 1
REMARK VINA RESULT:      -5.7      0.000      0.000
REMARK  6 active torsions:
REMARK  status: ('A' for Active; 'I' for Inactive)
REMARK    1  A    between atoms: C6_7  and  C7_8 
REMARK    2  A    between atoms: C7_8  and  C8_9 
REMARK    3  A    between atoms: C7_8  and  C9_11 
REMARK    4  A    between atoms: C8_9  and  N1_10 
REMARK    5  A    between atoms: C9_11  and  C10_12 
REMARK    6  A    between atoms: C10_12  and  O1_13 
ROOT
ATOM      1  C7  UNK     1       1.286  36.618 236.501  1.00  0.00     0.056 C 
ENDROOT
BRANCH   1   2
ATOM      2  C6  UNK     1       2.448  36.413 237.403  1.00  0.00    -0.052 A 
ATOM      3  C3  UNK     1       3.320  37.461 237.724  1.00  0.00     0.009 A 
ATOM      4  C2  UNK     1       4.349  37.275 238.645  1.00  0.00     0.024 A 
ATOM      5  C1  UNK     1       4.498  36.012 239.236  1.00  0.00     0.034 A 
ATOM      6 Cl1  UNK     1       5.795  35.722 240.419  1.00  0.00    -0.084 Cl
ATOM      7  C4  UNK     1       3.607  34.981 238.977  1.00  0.00     0.024 A 
ATOM      8  C5  UNK     1       2.588  35.157 238.035  1.00  0.00     0.009 A 
ENDBRANCH   1   2
BRANCH   1   9
ATOM      9  C8  UNK     1       1.722  36.788 235.023  1.00  0.00     0.276 C 
BRANCH   9  10
ATOM     10  N1  UNK     1       0.579  36.536 234.134  1.00  0.00     0.079 N 
ATOM     11  H8  UNK     1       0.892  36.055 233.315  1.00  0.00     0.312 HD
ATOM     12  H9  UNK     1      -0.097  35.976 234.612  1.00  0.00     0.312 HD
ENDBRANCH   9  10
ENDBRANCH   1   9
BRANCH   1  13
ATOM     13  C9  UNK     1       0.567  37.919 236.947  1.00  0.00     0.121 C 
BRANCH  13  14
ATOM     14  C10 UNK     1      -0.897  38.008 236.545  1.00  0.00     0.140 C 
ATOM     15  O2  UNK     1      -1.610  36.880 236.530  1.00  0.00    -0.650 OA
BRANCH  14  16
ATOM     16  O1  UNK     1      -1.450  39.083 236.288  1.00  0.00    -0.776 OA
ATOM     17  H12 UNK     1      -2.333  38.919 235.977  1.00  0.00     0.167 HD
ENDBRANCH  14  16
ENDBRANCH  13  14
ENDBRANCH   1  13
TORSDOF 6
ENDMDL
MODEL 2
REMARK VINA RESULT:      -5.6     10.405     11.696
REMARK  6 active torsions:
REMARK  status: ('A' for Active; 'I' for Inactive)
REMARK    1  A    between atoms: C6_7  and  C7_8 
REMARK    2  A    between atoms: C7_8  and  C8_9 
REMARK    3  A    between atoms: C7_8  and  C9_11 
REMARK    4  A    between atoms: C8_9  and  N1_10 
REMARK    5  A    between atoms: C9_11  and  C10_12 
REMARK    6  A    between atoms: C10_12  and  O1_13 
ROOT
ATOM      1  C7  UNK     1       0.849  42.071 227.760  1.00  0.00     0.056 C 
ENDROOT
BRANCH   1   2
ATOM      2  C6  UNK     1      -0.372  41.231 227.670  1.00  0.00    -0.052 A 
ATOM      3  C3  UNK     1      -1.304  41.402 226.639  1.00  0.00     0.009 A 
ATOM      4  C2  UNK     1      -2.396  40.544 226.516  1.00  0.00     0.024 A 
ATOM      5  C1  UNK     1      -2.545  39.512 227.454  1.00  0.00     0.034 A 
ATOM      6 Cl1  UNK     1      -3.921  38.389 227.342  1.00  0.00    -0.084 Cl
ATOM      7  C4  UNK     1      -1.599  39.290 228.444  1.00  0.00     0.024 A 
ATOM      8  C5  UNK     1      -0.516  40.164 228.584  1.00  0.00     0.009 A 
ENDBRANCH   1   2
BRANCH   1   9
ATOM      9  C8  UNK     1       1.377  42.478 226.361  1.00  0.00     0.276 C 
BRANCH   9  10
ATOM     10  N1  UNK     1       2.237  41.414 225.823  1.00  0.00     0.079 N 
ATOM     11  H8  UNK     1       2.924  41.163 226.504  1.00  0.00     0.312 HD
ATOM     12  H9  UNK     1       1.678  40.614 225.603  1.00  0.00     0.312 HD
ENDBRANCH   9  10
ENDBRANCH   1   9
BRANCH   1  13
ATOM     13  C9  UNK     1       1.947  41.232 228.467  1.00  0.00     0.121 C 
BRANCH  13  14
ATOM     14  C10 UNK     1       3.001  42.048 229.199  1.00  0.00     0.140 C 
ATOM     15  O2  UNK     1       3.975  42.604 228.475  1.00  0.00    -0.650 OA
BRANCH  14  16
ATOM     16  O1  UNK     1       2.955  42.252 230.417  1.00  0.00    -0.776 OA
ATOM     17  H12 UNK     1       3.690  41.823 230.839  1.00  0.00     0.167 HD
ENDBRANCH  14  16
ENDBRANCH  13  14
ENDBRANCH   1  13
TORSDOF 6
ENDMDL
MODEL 3
REMARK VINA RESULT:      -5.5     10.981     12.403
REMARK  6 active torsions:
REMARK  status: ('A' for Active; 'I' for Inactive)
REMARK    1  A    between atoms: C6_7  and  C7_8 
REMARK    2  A    between atoms: C7_8  and  C8_9 
REMARK    3  A    between atoms: C7_8  and  C9_11 
REMARK    4  A    between atoms: C8_9  and  N1_10 
REMARK    5  A    between atoms: C9_11  and  C10_12 
REMARK    6  A    between atoms: C10_12  and  O1_13 
ROOT
ATOM      1  C7  UNK     1      -0.037  41.152 226.999  1.00  0.00     0.056 C 
ENDROOT
BRANCH   1   2
ATOM      2  C6  UNK     1      -1.310  40.434 226.736  1.00  0.00    -0.052 A 
ATOM      3  C3  UNK     1      -1.864  39.557 227.676  1.00  0.00     0.009 A 
ATOM      4  C2  UNK     1      -3.105  38.964 227.454  1.00  0.00     0.024 A 
ATOM      5  C1  UNK     1      -3.784  39.259 226.262  1.00  0.00     0.034 A 
ATOM      6 Cl1  UNK     1      -5.372  38.530 225.929  1.00  0.00    -0.084 Cl
ATOM      7  C4  UNK     1      -3.279  40.173 225.349  1.00  0.00     0.024 A 
ATOM      8  C5  UNK     1      -2.023  40.751 225.558  1.00  0.00     0.009 A 
ENDBRANCH   1   2
BRANCH   1   9
ATOM      9  C8  UNK     1       1.186  40.394 226.423  1.00  0.00     0.276 C 
BRANCH   9  10
ATOM     10  N1  UNK     1       2.070  41.336 225.721  1.00  0.00     0.079 N 
ATOM     11  H8  UNK     1       1.791  41.407 224.763  1.00  0.00     0.312 HD
ATOM     12  H9  UNK     1       2.009  42.235 226.153  1.00  0.00     0.312 HD
ENDBRANCH   9  10
ENDBRANCH   1   9
BRANCH   1  13
ATOM     13  C9  UNK     1       0.137  41.255 228.538  1.00  0.00     0.121 C 
BRANCH  13  14
ATOM     14  C10 UNK     1       0.836  42.516 229.019  1.00  0.00     0.140 C 
ATOM     15  O2  UNK     1       1.572  43.197 228.137  1.00  0.00    -0.650 OA
BRANCH  14  16
ATOM     16  O1  UNK     1       0.703  42.952 230.167  1.00  0.00    -0.776 OA
ATOM     17  H12 UNK     1       0.408  43.855 230.132  1.00  0.00     0.167 HD
ENDBRANCH  14  16
ENDBRANCH  13  14
ENDBRANCH   1  13
TORSDOF 6
ENDMDL
MODEL 4
REMARK VINA RESULT:      -5.5      3.099      4.256
REMARK  6 active torsions:
REMARK  status: ('A' for Active; 'I' for Inactive)
REMARK    1  A    between atoms: C6_7  and  C7_8 
REMARK    2  A    between atoms: C7_8  and  C8_9 
REMARK    3  A    between atoms: C7_8  and  C9_11 
REMARK    4  A    between atoms: C8_9  and  N1_10 
REMARK    5  A    between atoms: C9_11  and  C10_12 
REMARK    6  A    between atoms: C10_12  and  O1_13 
ROOT
ATOM      1  C7  UNK     1       1.766  37.593 236.526  1.00  0.00     0.056 C 
ENDROOT
BRANCH   1   2
ATOM      2  C6  UNK     1       1.658  36.365 235.697  1.00  0.00    -0.052 A 
ATOM      3  C3  UNK     1       1.458  35.106 236.275  1.00  0.00     0.009 A 
ATOM      4  C2  UNK     1       1.266  33.979 235.480  1.00  0.00     0.024 A 
ATOM      5  C1  UNK     1       1.287  34.132 234.085  1.00  0.00     0.034 A 
ATOM      6 Cl1  UNK     1       1.045  32.725 233.024  1.00  0.00    -0.084 Cl
ATOM      7  C4  UNK     1       1.421  35.380 233.496  1.00  0.00     0.024 A 
ATOM      8  C5  UNK     1       1.638  36.510 234.292  1.00  0.00     0.009 A 
ENDBRANCH   1   2
BRANCH   1   9
ATOM      9  C8  UNK     1       2.960  37.525 237.511  1.00  0.00     0.276 C 
BRANCH   9  10
ATOM     10  N1  UNK     1       4.176  37.116 236.794  1.00  0.00     0.079 N 
ATOM     11  H8  UNK     1       4.917  36.967 237.449  1.00  0.00     0.312 HD
ATOM     12  H9  UNK     1       3.998  36.269 236.293  1.00  0.00     0.312 HD
ENDBRANCH   9  10
ENDBRANCH   1   9
BRANCH   1  13
ATOM     13  C9  UNK     1       0.459  37.718 237.355  1.00  0.00     0.121 C 
BRANCH  13  14
ATOM     14  C10 UNK     1      -0.804  37.907 236.530  1.00  0.00     0.140 C 
ATOM     15  O2  UNK     1      -1.572  36.838 236.310  1.00  0.00    -0.650 OA
BRANCH  14  16
ATOM     16  O1  UNK     1      -1.163  39.012 236.110  1.00  0.00    -0.776 OA
ATOM     17  H12 UNK     1      -1.954  38.913 235.592  1.00  0.00     0.167 HD
ENDBRANCH  14  16
ENDBRANCH  13  14
ENDBRANCH   1  13
TORSDOF 6
ENDMDL
MODEL 5
REMARK VINA RESULT:      -5.4      3.533      4.303
REMARK  6 active torsions:
REMARK  status: ('A' for Active; 'I' for Inactive)
REMARK    1  A    between atoms: C6_7  and  C7_8 
REMARK    2  A    between atoms: C7_8  and  C8_9 
REMARK    3  A    between atoms: C7_8  and  C9_11 
REMARK    4  A    between atoms: C8_9  and  N1_10 
REMARK    5  A    between atoms: C9_11  and  C10_12 
REMARK    6  A    between atoms: C10_12  and  O1_13 
ROOT
ATOM      1  C7  UNK     1       3.128  36.316 236.651  1.00  0.00     0.056 C 
ENDROOT
BRANCH   1   2
ATOM      2  C6  UNK     1       3.003  34.957 236.064  1.00  0.00    -0.052 A 
ATOM      3  C3  UNK     1       3.794  33.891 236.510  1.00  0.00     0.009 A 
ATOM      4  C2  UNK     1       3.598  32.603 236.015  1.00  0.00     0.024 A 
ATOM      5  C1  UNK     1       2.598  32.401 235.052  1.00  0.00     0.034 A 
ATOM      6 Cl1  UNK     1       2.308  30.776 234.388  1.00  0.00    -0.084 Cl
ATOM      7  C4  UNK     1       1.765  33.432 234.645  1.00  0.00     0.024 A 
ATOM      8  C5  UNK     1       1.975  34.730 235.122  1.00  0.00     0.009 A 
ENDBRANCH   1   2
BRANCH   1   9
ATOM      9  C8  UNK     1       4.253  36.387 237.715  1.00  0.00     0.276 C 
BRANCH   9  10
ATOM     10  N1  UNK     1       4.990  37.651 237.577  1.00  0.00     0.079 N 
ATOM     11  H8  UNK     1       5.707  37.547 236.888  1.00  0.00     0.312 HD
ATOM     12  H9  UNK     1       4.360  38.375 237.296  1.00  0.00     0.312 HD
ENDBRANCH   9  10
ENDBRANCH   1   9
BRANCH   1  13
ATOM     13  C9  UNK     1       1.782  36.655 237.345  1.00  0.00     0.121 C 
BRANCH  13  14
ATOM     14  C10 UNK     1       0.982  37.762 236.679  1.00  0.00     0.140 C 
ATOM     15  O2  UNK     1      -0.051  38.277 237.350  1.00  0.00    -0.650 OA
BRANCH  14  16
ATOM     16  O1  UNK     1       1.285  38.229 235.576  1.00  0.00    -0.776 OA
ATOM     17  H12 UNK     1       2.157  38.605 235.619  1.00  0.00     0.167 HD
ENDBRANCH  14  16
ENDBRANCH  13  14
ENDBRANCH   1  13
TORSDOF 6
ENDMDL
MODEL 6
REMARK VINA RESULT:      -5.3     10.316     11.007
REMARK  6 active torsions:
REMARK  status: ('A' for Active; 'I' for Inactive)
REMARK    1  A    between atoms: C6_7  and  C7_8 
REMARK    2  A    between atoms: C7_8  and  C8_9 
REMARK    3  A    between atoms: C7_8  and  C9_11 
REMARK    4  A    between atoms: C8_9  and  N1_10 
REMARK    5  A    between atoms: C9_11  and  C10_12 
REMARK    6  A    between atoms: C10_12  and  O1_13 
ROOT
ATOM      1  C7  UNK     1      -1.399  40.407 226.877  1.00  0.00     0.056 C 
ENDROOT
BRANCH   1   2
ATOM      2  C6  UNK     1      -0.029  40.761 227.330  1.00  0.00    -0.052 A 
ATOM      3  C3  UNK     1       1.090  40.549 226.515  1.00  0.00     0.009 A 
ATOM      4  C2  UNK     1       2.355  40.973 226.917  1.00  0.00     0.024 A 
ATOM      5  C1  UNK     1       2.484  41.608 228.161  1.00  0.00     0.034 A 
ATOM      6 Cl1  UNK     1       4.077  42.169 228.721  1.00  0.00    -0.084 Cl
ATOM      7  C4  UNK     1       1.379  41.882 228.953  1.00  0.00     0.024 A 
ATOM      8  C5  UNK     1       0.111  41.436 228.563  1.00  0.00     0.009 A 
ENDBRANCH   1   2
BRANCH   1   9
ATOM      9  C8  UNK     1      -2.042  41.538 226.037  1.00  0.00     0.276 C 
BRANCH   9  10
ATOM     10  N1  UNK     1      -1.939  41.217 224.606  1.00  0.00     0.079 N 
ATOM     11  H8  UNK     1      -1.391  40.388 224.488  1.00  0.00     0.312 HD
ATOM     12  H9  UNK     1      -2.854  41.067 224.232  1.00  0.00     0.312 HD
ENDBRANCH   9  10
ENDBRANCH   1   9
BRANCH   1  13
ATOM     13  C9  UNK     1      -2.271  40.186 228.142  1.00  0.00     0.121 C 
BRANCH  13  14
ATOM     14  C10 UNK     1      -2.738  38.755 228.354  1.00  0.00     0.140 C 
ATOM     15  O2  UNK     1      -1.851  37.775 228.171  1.00  0.00    -0.650 OA
BRANCH  14  16
ATOM     16  O1  UNK     1      -3.881  38.480 228.734  1.00  0.00    -0.776 OA
ATOM     17  H12 UNK     1      -3.840  37.789 229.386  1.00  0.00     0.167 HD
ENDBRANCH  14  16
ENDBRANCH  13  14
ENDBRANCH   1  13
TORSDOF 6
ENDMDL
MODEL 7
REMARK VINA RESULT:      -5.2      9.993     11.146
REMARK  6 active torsions:
REMARK  status: ('A' for Active; 'I' for Inactive)
REMARK    1  A    between atoms: C6_7  and  C7_8 
REMARK    2  A    between atoms: C7_8  and  C8_9 
REMARK    3  A    between atoms: C7_8  and  C9_11 
REMARK    4  A    between atoms: C8_9  and  N1_10 
REMARK    5  A    between atoms: C9_11  and  C10_12 
REMARK    6  A    between atoms: C10_12  and  O1_13 
ROOT
ATOM      1  C7  UNK     1      -0.923  41.088 227.691  1.00  0.00     0.056 C 
ENDROOT
BRANCH   1   2
ATOM      2  C6  UNK     1      -1.659  39.822 227.935  1.00  0.00    -0.052 A 
ATOM      3  C3  UNK     1      -2.780  39.469 227.173  1.00  0.00     0.009 A 
ATOM      4  C2  UNK     1      -3.402  38.235 227.351  1.00  0.00     0.024 A 
ATOM      5  C1  UNK     1      -2.887  37.358 228.318  1.00  0.00     0.034 A 
ATOM      6 Cl1  UNK     1      -3.644  35.770 228.584  1.00  0.00    -0.084 Cl
ATOM      7  C4  UNK     1      -1.741  37.666 229.037  1.00  0.00     0.024 A 
ATOM      8  C5  UNK     1      -1.129  38.913 228.877  1.00  0.00     0.009 A 
ENDBRANCH   1   2
BRANCH   1   9
ATOM      9  C8  UNK     1      -0.536  41.258 226.200  1.00  0.00     0.276 C 
BRANCH   9  10
ATOM     10  N1  UNK     1       0.809  40.711 225.968  1.00  0.00     0.079 N 
ATOM     11  H8  UNK     1       0.734  39.812 225.536  1.00  0.00     0.312 HD
ATOM     12  H9  UNK     1       1.320  41.327 225.370  1.00  0.00     0.312 HD
ENDBRANCH   9  10
ENDBRANCH   1   9
BRANCH   1  13
ATOM     13  C9  UNK     1       0.383  41.042 228.529  1.00  0.00     0.121 C 
BRANCH  13  14
ATOM     14  C10 UNK     1       0.917  42.401 228.955  1.00  0.00     0.140 C 
ATOM     15  O2  UNK     1       1.655  43.085 228.078  1.00  0.00    -0.650 OA
BRANCH  14  16
ATOM     16  O1  UNK     1       0.648  42.905 230.050  1.00  0.00    -0.776 OA
ATOM     17  H12 UNK     1       1.453  43.108 230.512  1.00  0.00     0.167 HD
ENDBRANCH  14  16
ENDBRANCH  13  14
ENDBRANCH   1  13
TORSDOF 6
ENDMDL
MODEL 8
REMARK VINA RESULT:      -5.2      9.624     10.282
REMARK  6 active torsions:
REMARK  status: ('A' for Active; 'I' for Inactive)
REMARK    1  A    between atoms: C6_7  and  C7_8 
REMARK    2  A    between atoms: C7_8  and  C8_9 
REMARK    3  A    between atoms: C7_8  and  C9_11 
REMARK    4  A    between atoms: C8_9  and  N1_10 
REMARK    5  A    between atoms: C9_11  and  C10_12 
REMARK    6  A    between atoms: C10_12  and  O1_13 
ROOT
ATOM      1  C7  UNK     1       0.959  39.759 227.190  1.00  0.00     0.056 C 
ENDROOT
BRANCH   1   2
ATOM      2  C6  UNK     1       1.116  38.300 227.424  1.00  0.00    -0.052 A 
ATOM      3  C3  UNK     1       2.275  37.617 227.038  1.00  0.00     0.009 A 
ATOM      4  C2  UNK     1       2.444  36.269 227.349  1.00  0.00     0.024 A 
ATOM      5  C1  UNK     1       1.422  35.610 228.049  1.00  0.00     0.034 A 
ATOM      6 Cl1  UNK     1       1.589  33.890 228.471  1.00  0.00    -0.084 Cl
ATOM      7  C4  UNK     1       0.296  36.286 228.493  1.00  0.00     0.024 A 
ATOM      8  C5  UNK     1       0.112  37.633 228.161  1.00  0.00     0.009 A 
ENDBRANCH   1   2
BRANCH   1   9
ATOM      9  C8  UNK     1       2.318  40.450 226.912  1.00  0.00     0.276 C 
BRANCH   9  10
ATOM     10  N1  UNK     1       2.202  41.320 225.732  1.00  0.00     0.079 N 
ATOM     11  H8  UNK     1       2.383  40.788 224.905  1.00  0.00     0.312 HD
ATOM     12  H9  UNK     1       1.278  41.700 225.689  1.00  0.00     0.312 HD
ENDBRANCH   9  10
ENDBRANCH   1   9
BRANCH   1  13
ATOM     13  C9  UNK     1       0.354  40.380 228.477  1.00  0.00     0.121 C 
BRANCH  13  14
ATOM     14  C10 UNK     1      -0.972  41.096 228.277  1.00  0.00     0.140 C 
ATOM     15  O2  UNK     1      -1.078  41.939 227.247  1.00  0.00    -0.650 OA
BRANCH  14  16
ATOM     16  O1  UNK     1      -1.955  40.886 228.996  1.00  0.00    -0.776 OA
ATOM     17  H12 UNK     1      -2.516  41.653 228.999  1.00  0.00     0.167 HD
ENDBRANCH  14  16
ENDBRANCH  13  14
ENDBRANCH   1  13
TORSDOF 6
ENDMDL
MODEL 9
REMARK VINA RESULT:      -5.1      3.017      3.628
REMARK  6 active torsions:
REMARK  status: ('A' for Active; 'I' for Inactive)
REMARK    1  A    between atoms: C6_7  and  C7_8 
REMARK    2  A    between atoms: C7_8  and  C8_9 
REMARK    3  A    between atoms: C7_8  and  C9_11 
REMARK    4  A    between atoms: C8_9  and  N1_10 
REMARK    5  A    between atoms: C9_11  and  C10_12 
REMARK    6  A    between atoms: C10_12  and  O1_13 
ROOT
ATOM      1  C7  UNK     1       3.284  36.808 237.364  1.00  0.00     0.056 C 
ENDROOT
BRANCH   1   2
ATOM      2  C6  UNK     1       3.260  35.323 237.334  1.00  0.00    -0.052 A 
ATOM      3  C3  UNK     1       3.722  34.605 236.225  1.00  0.00     0.009 A 
ATOM      4  C2  UNK     1       3.779  33.213 236.250  1.00  0.00     0.024 A 
ATOM      5  C1  UNK     1       3.355  32.547 237.410  1.00  0.00     0.034 A 
ATOM      6 Cl1  UNK     1       3.408  30.770 237.494  1.00  0.00    -0.084 Cl
ATOM      7  C4  UNK     1       2.953  33.244 238.540  1.00  0.00     0.024 A 
ATOM      8  C5  UNK     1       2.871  34.640 238.508  1.00  0.00     0.009 A 
ENDBRANCH   1   2
BRANCH   1   9
ATOM      9  C8  UNK     1       4.087  37.351 238.574  1.00  0.00     0.276 C 
BRANCH   9  10
ATOM     10  N1  UNK     1       5.527  37.187 238.331  1.00  0.00     0.079 N 
ATOM     11  H8  UNK     1       6.033  37.886 238.835  1.00  0.00     0.312 HD
ATOM     12  H9  UNK     1       5.815  36.280 238.638  1.00  0.00     0.312 HD
ENDBRANCH   9  10
ENDBRANCH   1   9
BRANCH   1  13
ATOM     13  C9  UNK     1       1.818  37.301 237.494  1.00  0.00     0.121 C 
BRANCH  13  14
ATOM     14  C10 UNK     1       1.197  37.803 236.201  1.00  0.00     0.140 C 
ATOM     15  O2  UNK     1       1.797  37.480 235.053  1.00  0.00    -0.650 OA
BRANCH  14  16
ATOM     16  O1  UNK     1       0.142  38.446 236.177  1.00  0.00    -0.776 OA
ATOM     17  H12 UNK     1      -0.505  37.975 235.664  1.00  0.00     0.167 HD
ENDBRANCH  14  16
ENDBRANCH  13  14
ENDBRANCH   1  13
TORSDOF 6
ENDMDL
