MODEL 1
REMARK VINA RESULT:      -6.1      0.000      0.000
REMARK  6 active torsions:
REMARK  status: ('A' for Active; 'I' for Inactive)
REMARK    1  A    between atoms: O2_2  and  C7_12 
REMARK    2  A    between atoms: O2_2  and  C9_14 
REMARK    3  A    between atoms: O4_4  and  C11_16 
REMARK    4  A    between atoms: C9_14  and  C10_15 
REMARK    5  A    between atoms: C10_15  and  C11_16 
REMARK    6  A    between atoms: C10_15  and  C12_17 
ROOT
ATOM      1  O3  UNK     1      -1.264  41.595 229.129  1.00  0.00    -0.264 OA
ATOM      2  C9  UNK     1      -1.229  41.103 228.008  1.00  0.00     0.270 C 
ENDROOT
BRANCH   2   3
ATOM      3  O2  UNK     1      -2.018  40.068 227.577  1.00  0.00    -0.315 OA
BRANCH   3   4
ATOM      4  C7  UNK     1      -2.117  38.954 228.456  1.00  0.00     0.136 C 
ATOM      5  C5  UNK     1      -3.374  38.117 228.116  1.00  0.00     0.071 C 
ATOM      6  C3  UNK     1      -3.290  36.678 228.670  1.00  0.00     0.257 C 
ATOM      7  N1  UNK     1      -2.050  36.139 228.067  1.00  0.00     0.099 N 
ATOM      8  C1  UNK     1      -3.028  36.715 230.156  1.00  0.00     0.186 A 
ATOM      9  C4  UNK     1      -0.978  36.699 228.922  1.00  0.00     0.257 C 
ATOM     10  C8  UNK     1      -2.024  34.688 227.946  1.00  0.00     0.311 C 
ATOM     11  C2  UNK     1      -1.555  36.728 230.316  1.00  0.00     0.186 A 
ATOM     12  C6  UNK     1      -0.803  38.140 228.394  1.00  0.00     0.071 C 
ATOM     13  O1  UNK     1      -2.336  35.608 230.743  1.00  0.00    -0.371 OA
ENDBRANCH   3   4
ENDBRANCH   2   3
BRANCH   2  14
ATOM     14  C10 UNK     1      -0.306  41.555 226.879  1.00  0.00     0.142 C 
BRANCH  14  15
ATOM     15  C11 UNK     1      -0.591  40.750 225.603  1.00  0.00     0.183 C 
BRANCH  15  16
ATOM     16  O4  UNK     1      -1.643  41.372 224.872  1.00  0.00    -0.400 OA
ATOM     17  H18 UNK     1      -1.358  42.273 224.647  1.00  0.00     0.209 HD
ENDBRANCH  15  16
ENDBRANCH  14  15
BRANCH  14  18
ATOM     18  C12 UNK     1       1.152  41.475 227.301  1.00  0.00    -0.043 A 
ATOM     19  C13 UNK     1       1.723  42.555 227.942  1.00  0.00     0.008 A 
ATOM     20  C15 UNK     1       3.062  42.481 228.328  1.00  0.00     0.001 A 
ATOM     21  C17 UNK     1       3.801  41.328 228.064  1.00  0.00     0.000 A 
ATOM     22  C16 UNK     1       3.202  40.250 227.415  1.00  0.00     0.001 A 
ATOM     23  C14 UNK     1       1.864  40.323 227.029  1.00  0.00     0.008 A 
ENDBRANCH  14  18
ENDBRANCH   2  14
TORSDOF 6
ENDMDL
MODEL 2
REMARK VINA RESULT:      -6.0      7.927     10.808
REMARK  6 active torsions:
REMARK  status: ('A' for Active; 'I' for Inactive)
REMARK    1  A    between atoms: O2_2  and  C7_12 
REMARK    2  A    between atoms: O2_2  and  C9_14 
REMARK    3  A    between atoms: O4_4  and  C11_16 
REMARK    4  A    between atoms: C9_14  and  C10_15 
REMARK    5  A    between atoms: C10_15  and  C11_16 
REMARK    6  A    between atoms: C10_15  and  C12_17 
ROOT
ATOM      1  O3  UNK     1       1.838  33.426 238.530  1.00  0.00    -0.264 OA
ATOM      2  C9  UNK     1       2.358  34.261 237.801  1.00  0.00     0.270 C 
ENDROOT
BRANCH   2   3
ATOM      3  O2  UNK     1       1.740  35.392 237.334  1.00  0.00    -0.315 OA
BRANCH   3   4
ATOM      4  C7  UNK     1       0.425  35.215 236.819  1.00  0.00     0.136 C 
ATOM      5  C5  UNK     1      -0.277  36.586 236.668  1.00  0.00     0.071 C 
ATOM      6  C3  UNK     1      -1.470  36.531 235.690  1.00  0.00     0.257 C 
ATOM      7  N1  UNK     1      -0.870  36.042 234.427  1.00  0.00     0.099 N 
ATOM      8  C1  UNK     1      -2.436  35.453 236.117  1.00  0.00     0.186 A 
ATOM      9  C4  UNK     1      -0.771  34.579 234.637  1.00  0.00     0.257 C 
ATOM     10  C8  UNK     1      -1.599  36.428 233.228  1.00  0.00     0.311 C 
ATOM     11  C2  UNK     1      -1.990  34.209 235.446  1.00  0.00     0.186 A 
ATOM     12  C6  UNK     1       0.501  34.416 235.497  1.00  0.00     0.071 C 
ATOM     13  O1  UNK     1      -3.234  34.829 235.108  1.00  0.00    -0.371 OA
ENDBRANCH   3   4
ENDBRANCH   2   3
BRANCH   2  14
ATOM     14  C10 UNK     1       3.792  34.203 237.281  1.00  0.00     0.142 C 
BRANCH  14  15
ATOM     15  C11 UNK     1       4.013  35.275 236.204  1.00  0.00     0.183 C 
BRANCH  15  16
ATOM     16  O4  UNK     1       4.530  36.456 236.808  1.00  0.00    -0.400 OA
ATOM     17  H18 UNK     1       3.996  36.646 237.597  1.00  0.00     0.209 HD
ENDBRANCH  15  16
ENDBRANCH  14  15
BRANCH  14  18
ATOM     18  C12 UNK     1       4.138  32.807 236.787  1.00  0.00    -0.043 A 
ATOM     19  C13 UNK     1       4.883  31.977 237.599  1.00  0.00     0.008 A 
ATOM     20  C15 UNK     1       5.201  30.696 237.146  1.00  0.00     0.001 A 
ATOM     21  C17 UNK     1       4.767  30.273 235.890  1.00  0.00     0.000 A 
ATOM     22  C16 UNK     1       4.015  31.131 235.087  1.00  0.00     0.001 A 
ATOM     23  C14 UNK     1       3.697  32.411 235.540  1.00  0.00     0.008 A 
ENDBRANCH  14  18
ENDBRANCH   2  14
TORSDOF 6
ENDMDL
MODEL 3
REMARK VINA RESULT:      -6.0      7.469     10.372
REMARK  6 active torsions:
REMARK  status: ('A' for Active; 'I' for Inactive)
REMARK    1  A    between atoms: O2_2  and  C7_12 
REMARK    2  A    between atoms: O2_2  and  C9_14 
REMARK    3  A    between atoms: O4_4  and  C11_16 
REMARK    4  A    between atoms: C9_14  and  C10_15 
REMARK    5  A    between atoms: C10_15  and  C11_16 
REMARK    6  A    between atoms: C10_15  and  C12_17 
ROOT
ATOM      1  O3  UNK     1       4.644  35.687 236.194  1.00  0.00    -0.264 OA
ATOM      2  C9  UNK     1       3.446  35.470 236.323  1.00  0.00     0.270 C 
ENDROOT
BRANCH   2   3
ATOM      3  O2  UNK     1       2.445  36.275 235.844  1.00  0.00    -0.315 OA
BRANCH   3   4
ATOM      4  C7  UNK     1       1.342  35.607 235.244  1.00  0.00     0.136 C 
ATOM      5  C5  UNK     1       0.023  36.340 235.589  1.00  0.00     0.071 C 
ATOM      6  C3  UNK     1      -1.119  35.988 234.612  1.00  0.00     0.257 C 
ATOM      7  N1  UNK     1      -0.575  36.359 233.285  1.00  0.00     0.099 N 
ATOM      8  C1  UNK     1      -1.308  34.492 234.561  1.00  0.00     0.186 A 
ATOM      9  C4  UNK     1       0.292  35.211 232.933  1.00  0.00     0.257 C 
ATOM     10  C8  UNK     1      -1.590  36.672 232.288  1.00  0.00     0.311 C 
ATOM     11  C2  UNK     1      -0.409  33.997 233.491  1.00  0.00     0.186 A 
ATOM     12  C6  UNK     1       1.592  35.478 233.724  1.00  0.00     0.071 C 
ATOM     13  O1  UNK     1      -1.831  33.921 233.357  1.00  0.00    -0.371 OA
ENDBRANCH   3   4
ENDBRANCH   2   3
BRANCH   2  14
ATOM     14  C10 UNK     1       2.843  34.261 237.032  1.00  0.00     0.142 C 
BRANCH  14  15
ATOM     15  C11 UNK     1       2.801  34.498 238.548  1.00  0.00     0.183 C 
BRANCH  15  16
ATOM     16  O4  UNK     1       3.099  35.863 238.825  1.00  0.00    -0.400 OA
ATOM     17  H18 UNK     1       2.258  36.338 238.925  1.00  0.00     0.209 HD
ENDBRANCH  15  16
ENDBRANCH  14  15
BRANCH  14  18
ATOM     18  C12 UNK     1       3.587  32.986 236.667  1.00  0.00    -0.043 A 
ATOM     19  C13 UNK     1       3.399  32.438 235.414  1.00  0.00     0.008 A 
ATOM     20  C15 UNK     1       4.082  31.268 235.080  1.00  0.00     0.001 A 
ATOM     21  C17 UNK     1       4.936  30.671 236.005  1.00  0.00     0.000 A 
ATOM     22  C16 UNK     1       5.109  31.243 237.265  1.00  0.00     0.001 A 
ATOM     23  C14 UNK     1       4.428  32.412 237.600  1.00  0.00     0.008 A 
ENDBRANCH  14  18
ENDBRANCH   2  14
TORSDOF 6
ENDMDL
MODEL 4
REMARK VINA RESULT:      -5.9      6.146      8.566
REMARK  6 active torsions:
REMARK  status: ('A' for Active; 'I' for Inactive)
REMARK    1  A    between atoms: O2_2  and  C7_12 
REMARK    2  A    between atoms: O2_2  and  C9_14 
REMARK    3  A    between atoms: O4_4  and  C11_16 
REMARK    4  A    between atoms: C9_14  and  C10_15 
REMARK    5  A    between atoms: C10_15  and  C11_16 
REMARK    6  A    between atoms: C10_15  and  C12_17 
ROOT
ATOM      1  O3  UNK     1       1.827  37.150 234.637  1.00  0.00    -0.264 OA
ATOM      2  C9  UNK     1       1.006  36.553 235.321  1.00  0.00     0.270 C 
ENDROOT
BRANCH   2   3
ATOM      3  O2  UNK     1       0.068  35.677 234.839  1.00  0.00    -0.315 OA
BRANCH   3   4
ATOM      4  C7  UNK     1      -0.334  35.878 233.489  1.00  0.00     0.136 C 
ATOM      5  C5  UNK     1      -0.170  34.566 232.684  1.00  0.00     0.071 C 
ATOM      6  C3  UNK     1      -1.016  34.558 231.393  1.00  0.00     0.257 C 
ATOM      7  N1  UNK     1      -2.399  34.777 231.875  1.00  0.00     0.099 N 
ATOM      8  C1  UNK     1      -0.689  35.771 230.557  1.00  0.00     0.186 A 
ATOM      9  C4  UNK     1      -2.461  36.240 232.095  1.00  0.00     0.257 C 
ATOM     10  C8  UNK     1      -3.432  34.259 230.988  1.00  0.00     0.311 C 
ATOM     11  C2  UNK     1      -1.610  36.843 231.005  1.00  0.00     0.186 A 
ATOM     12  C6  UNK     1      -1.776  36.435 233.466  1.00  0.00     0.071 C 
ATOM     13  O1  UNK     1      -1.706  36.285 229.691  1.00  0.00    -0.371 OA
ENDBRANCH   3   4
ENDBRANCH   2   3
BRANCH   2  14
ATOM     14  C10 UNK     1       0.879  36.664 236.838  1.00  0.00     0.142 C 
BRANCH  14  15
ATOM     15  C11 UNK     1       0.211  37.992 237.221  1.00  0.00     0.183 C 
BRANCH  15  16
ATOM     16  O4  UNK     1      -0.551  38.477 236.120  1.00  0.00    -0.400 OA
ATOM     17  H18 UNK     1      -0.547  39.448 236.159  1.00  0.00     0.209 HD
ENDBRANCH  15  16
ENDBRANCH  14  15
BRANCH  14  18
ATOM     18  C12 UNK     1       2.228  36.479 237.514  1.00  0.00    -0.043 A 
ATOM     19  C13 UNK     1       3.033  37.582 237.713  1.00  0.00     0.008 A 
ATOM     20  C15 UNK     1       4.271  37.411 238.334  1.00  0.00     0.001 A 
ATOM     21  C17 UNK     1       4.677  36.141 238.742  1.00  0.00     0.000 A 
ATOM     22  C16 UNK     1       3.846  35.042 238.530  1.00  0.00     0.001 A 
ATOM     23  C14 UNK     1       2.609  35.211 237.910  1.00  0.00     0.008 A 
ENDBRANCH  14  18
ENDBRANCH   2  14
TORSDOF 6
ENDMDL
MODEL 5
REMARK VINA RESULT:      -5.8      8.116      9.500
REMARK  6 active torsions:
REMARK  status: ('A' for Active; 'I' for Inactive)
REMARK    1  A    between atoms: O2_2  and  C7_12 
REMARK    2  A    between atoms: O2_2  and  C9_14 
REMARK    3  A    between atoms: O4_4  and  C11_16 
REMARK    4  A    between atoms: C9_14  and  C10_15 
REMARK    5  A    between atoms: C10_15  and  C11_16 
REMARK    6  A    between atoms: C10_15  and  C12_17 
ROOT
ATOM      1  O3  UNK     1       1.862  37.130 234.666  1.00  0.00    -0.264 OA
ATOM      2  C9  UNK     1       1.020  36.528 235.320  1.00  0.00     0.270 C 
ENDROOT
BRANCH   2   3
ATOM      3  O2  UNK     1       0.076  35.681 234.798  1.00  0.00    -0.315 OA
BRANCH   3   4
ATOM      4  C7  UNK     1       0.451  34.312 234.705  1.00  0.00     0.136 C 
ATOM      5  C5  UNK     1      -0.728  33.407 235.138  1.00  0.00     0.071 C 
ATOM      6  C3  UNK     1      -0.582  31.962 234.614  1.00  0.00     0.257 C 
ATOM      7  N1  UNK     1      -0.481  32.126 233.145  1.00  0.00     0.099 N 
ATOM      8  C1  UNK     1       0.748  31.391 235.043  1.00  0.00     0.186 A 
ATOM      9  C4  UNK     1       0.933  32.513 232.937  1.00  0.00     0.257 C 
ATOM     10  C8  UNK     1      -0.904  30.961 232.381  1.00  0.00     0.311 C 
ATOM     11  C2  UNK     1       1.713  31.742 233.974  1.00  0.00     0.186 A 
ATOM     12  C6  UNK     1       0.956  34.020 233.273  1.00  0.00     0.071 C 
ATOM     13  O1  UNK     1       1.343  30.383 234.220  1.00  0.00    -0.371 OA
ENDBRANCH   3   4
ENDBRANCH   2   3
BRANCH   2  14
ATOM     14  C10 UNK     1       0.868  36.600 236.837  1.00  0.00     0.142 C 
BRANCH  14  15
ATOM     15  C11 UNK     1       0.182  37.912 237.242  1.00  0.00     0.183 C 
BRANCH  15  16
ATOM     16  O4  UNK     1      -0.493  38.464 236.117  1.00  0.00    -0.400 OA
ATOM     17  H18 UNK     1      -0.037  39.285 235.868  1.00  0.00     0.209 HD
ENDBRANCH  15  16
ENDBRANCH  14  15
BRANCH  14  18
ATOM     18  C12 UNK     1       2.208  36.409 237.530  1.00  0.00    -0.043 A 
ATOM     19  C13 UNK     1       2.996  37.514 237.777  1.00  0.00     0.008 A 
ATOM     20  C15 UNK     1       4.225  37.338 238.413  1.00  0.00     0.001 A 
ATOM     21  C17 UNK     1       4.640  36.061 238.788  1.00  0.00     0.000 A 
ATOM     22  C16 UNK     1       3.826  34.959 238.527  1.00  0.00     0.001 A 
ATOM     23  C14 UNK     1       2.597  35.134 237.892  1.00  0.00     0.008 A 
ENDBRANCH  14  18
ENDBRANCH   2  14
TORSDOF 6
ENDMDL
MODEL 6
REMARK VINA RESULT:      -5.8      8.434     10.969
REMARK  6 active torsions:
REMARK  status: ('A' for Active; 'I' for Inactive)
REMARK    1  A    between atoms: O2_2  and  C7_12 
REMARK    2  A    between atoms: O2_2  and  C9_14 
REMARK    3  A    between atoms: O4_4  and  C11_16 
REMARK    4  A    between atoms: C9_14  and  C10_15 
REMARK    5  A    between atoms: C10_15  and  C11_16 
REMARK    6  A    between atoms: C10_15  and  C12_17 
ROOT
ATOM      1  O3  UNK     1       4.218  35.308 236.078  1.00  0.00    -0.264 OA
ATOM      2  C9  UNK     1       3.347  35.967 236.631  1.00  0.00     0.270 C 
ENDROOT
BRANCH   2   3
ATOM      3  O2  UNK     1       2.299  36.579 235.992  1.00  0.00    -0.315 OA
BRANCH   3   4
ATOM      4  C7  UNK     1       1.032  35.948 236.130  1.00  0.00     0.136 C 
ATOM      5  C5  UNK     1      -0.092  37.012 236.162  1.00  0.00     0.071 C 
ATOM      6  C3  UNK     1      -1.475  36.417 235.821  1.00  0.00     0.257 C 
ATOM      7  N1  UNK     1      -1.281  35.815 234.482  1.00  0.00     0.099 N 
ATOM      8  C1  UNK     1      -1.776  35.258 236.740  1.00  0.00     0.186 A 
ATOM      9  C4  UNK     1      -0.622  34.522 234.777  1.00  0.00     0.257 C 
ATOM     10  C8  UNK     1      -2.500  35.701 233.694  1.00  0.00     0.311 C 
ATOM     11  C2  UNK     1      -1.232  34.050 236.074  1.00  0.00     0.186 A 
ATOM     12  C6  UNK     1       0.858  34.906 235.001  1.00  0.00     0.071 C 
ATOM     13  O1  UNK     1      -2.640  34.225 236.256  1.00  0.00    -0.371 OA
ENDBRANCH   3   4
ENDBRANCH   2   3
BRANCH   2  14
ATOM     14  C10 UNK     1       3.259  36.225 238.132  1.00  0.00     0.142 C 
BRANCH  14  15
ATOM     15  C11 UNK     1       4.172  37.395 238.527  1.00  0.00     0.183 C 
BRANCH  15  16
ATOM     16  O4  UNK     1       4.804  37.919 237.364  1.00  0.00    -0.400 OA
ATOM     17  H18 UNK     1       4.205  38.573 236.968  1.00  0.00     0.209 HD
ENDBRANCH  15  16
ENDBRANCH  14  15
BRANCH  14  18
ATOM     18  C12 UNK     1       3.562  34.962 238.922  1.00  0.00    -0.043 A 
ATOM     19  C13 UNK     1       4.688  34.927 239.720  1.00  0.00     0.008 A 
ATOM     20  C15 UNK     1       4.966  33.767 240.444  1.00  0.00     0.001 A 
ATOM     21  C17 UNK     1       4.112  32.668 240.356  1.00  0.00     0.000 A 
ATOM     22  C16 UNK     1       2.981  32.728 239.543  1.00  0.00     0.001 A 
ATOM     23  C14 UNK     1       2.702  33.886 238.819  1.00  0.00     0.008 A 
ENDBRANCH  14  18
ENDBRANCH   2  14
TORSDOF 6
ENDMDL
MODEL 7
REMARK VINA RESULT:      -5.7      7.279     10.030
REMARK  6 active torsions:
REMARK  status: ('A' for Active; 'I' for Inactive)
REMARK    1  A    between atoms: O2_2  and  C7_12 
REMARK    2  A    between atoms: O2_2  and  C9_14 
REMARK    3  A    between atoms: O4_4  and  C11_16 
REMARK    4  A    between atoms: C9_14  and  C10_15 
REMARK    5  A    between atoms: C10_15  and  C11_16 
REMARK    6  A    between atoms: C10_15  and  C12_17 
ROOT
ATOM      1  O3  UNK     1       1.354  37.746 237.673  1.00  0.00    -0.264 OA
ATOM      2  C9  UNK     1       2.112  36.890 237.235  1.00  0.00     0.270 C 
ENDROOT
BRANCH   2   3
ATOM      3  O2  UNK     1       2.184  36.501 235.922  1.00  0.00    -0.315 OA
BRANCH   3   4
ATOM      4  C7  UNK     1       0.943  36.408 235.232  1.00  0.00     0.136 C 
ATOM      5  C5  UNK     1       1.191  36.244 233.712  1.00  0.00     0.071 C 
ATOM      6  C3  UNK     1      -0.035  35.659 232.977  1.00  0.00     0.257 C 
ATOM      7  N1  UNK     1      -0.282  34.373 233.670  1.00  0.00     0.099 N 
ATOM      8  C1  UNK     1      -1.253  36.503 233.257  1.00  0.00     0.186 A 
ATOM      9  C4  UNK     1      -1.011  34.776 234.895  1.00  0.00     0.257 C 
ATOM     10  C8  UNK     1      -0.972  33.379 232.860  1.00  0.00     0.311 C 
ATOM     11  C2  UNK     1      -1.875  35.941 234.479  1.00  0.00     0.186 A 
ATOM     12  C6  UNK     1       0.106  35.261 235.845  1.00  0.00     0.071 C 
ATOM     13  O1  UNK     1      -2.535  35.869 233.212  1.00  0.00    -0.371 OA
ENDBRANCH   3   4
ENDBRANCH   2   3
BRANCH   2  14
ATOM     14  C10 UNK     1       3.120  36.101 238.065  1.00  0.00     0.142 C 
BRANCH  14  15
ATOM     15  C11 UNK     1       4.525  36.698 237.907  1.00  0.00     0.183 C 
BRANCH  15  16
ATOM     16  O4  UNK     1       4.438  37.947 237.226  1.00  0.00    -0.400 OA
ATOM     17  H18 UNK     1       4.692  38.645 237.852  1.00  0.00     0.209 HD
ENDBRANCH  15  16
ENDBRANCH  14  15
BRANCH  14  18
ATOM     18  C12 UNK     1       3.078  34.622 237.715  1.00  0.00    -0.043 A 
ATOM     19  C13 UNK     1       3.862  34.158 236.679  1.00  0.00     0.008 A 
ATOM     20  C15 UNK     1       3.823  32.800 236.358  1.00  0.00     0.001 A 
ATOM     21  C17 UNK     1       3.000  31.937 237.079  1.00  0.00     0.000 A 
ATOM     22  C16 UNK     1       2.216  32.429 238.122  1.00  0.00     0.001 A 
ATOM     23  C14 UNK     1       2.255  33.786 238.444  1.00  0.00     0.008 A 
ENDBRANCH  14  18
ENDBRANCH   2  14
TORSDOF 6
ENDMDL
MODEL 8
REMARK VINA RESULT:      -5.7      5.945      8.425
REMARK  6 active torsions:
REMARK  status: ('A' for Active; 'I' for Inactive)
REMARK    1  A    between atoms: O2_2  and  C7_12 
REMARK    2  A    between atoms: O2_2  and  C9_14 
REMARK    3  A    between atoms: O4_4  and  C11_16 
REMARK    4  A    between atoms: C9_14  and  C10_15 
REMARK    5  A    between atoms: C10_15  and  C11_16 
REMARK    6  A    between atoms: C10_15  and  C12_17 
ROOT
ATOM      1  O3  UNK     1      -1.943  35.768 235.652  1.00  0.00    -0.264 OA
ATOM      2  C9  UNK     1      -0.768  36.104 235.573  1.00  0.00     0.270 C 
ENDROOT
BRANCH   2   3
ATOM      3  O2  UNK     1      -0.097  36.347 234.402  1.00  0.00    -0.315 OA
BRANCH   3   4
ATOM      4  C7  UNK     1      -0.331  35.423 233.347  1.00  0.00     0.136 C 
ATOM      5  C5  UNK     1      -0.888  36.162 232.106  1.00  0.00     0.071 C 
ATOM      6  C3  UNK     1      -0.707  35.347 230.806  1.00  0.00     0.257 C 
ATOM      7  N1  UNK     1       0.754  35.112 230.738  1.00  0.00     0.099 N 
ATOM      8  C1  UNK     1      -1.325  33.980 230.967  1.00  0.00     0.186 A 
ATOM      9  C4  UNK     1       0.964  33.977 231.665  1.00  0.00     0.257 C 
ATOM     10  C8  UNK     1       1.262  34.889 229.391  1.00  0.00     0.311 C 
ATOM     11  C2  UNK     1      -0.259  33.106 231.514  1.00  0.00     0.186 A 
ATOM     12  C6  UNK     1       0.970  34.639 233.061  1.00  0.00     0.071 C 
ATOM     13  O1  UNK     1      -0.781  32.903 230.198  1.00  0.00    -0.371 OA
ENDBRANCH   3   4
ENDBRANCH   2   3
BRANCH   2  14
ATOM     14  C10 UNK     1       0.165  36.321 236.760  1.00  0.00     0.142 C 
BRANCH  14  15
ATOM     15  C11 UNK     1       0.450  37.817 236.949  1.00  0.00     0.183 C 
BRANCH  15  16
ATOM     16  O4  UNK     1      -0.567  38.580 236.305  1.00  0.00    -0.400 OA
ATOM     17  H18 UNK     1      -0.488  38.434 235.348  1.00  0.00     0.209 HD
ENDBRANCH  15  16
ENDBRANCH  14  15
BRANCH  14  18
ATOM     18  C12 UNK     1       1.439  35.504 236.610  1.00  0.00    -0.043 A 
ATOM     19  C13 UNK     1       2.634  36.162 236.400  1.00  0.00     0.008 A 
ATOM     20  C15 UNK     1       3.802  35.412 236.262  1.00  0.00     0.001 A 
ATOM     21  C17 UNK     1       3.751  34.021 236.336  1.00  0.00     0.000 A 
ATOM     22  C16 UNK     1       2.532  33.379 236.549  1.00  0.00     0.001 A 
ATOM     23  C14 UNK     1       1.363  34.127 236.687  1.00  0.00     0.008 A 
ENDBRANCH  14  18
ENDBRANCH   2  14
TORSDOF 6
ENDMDL
MODEL 9
REMARK VINA RESULT:      -5.6      0.893      2.005
REMARK  6 active torsions:
REMARK  status: ('A' for Active; 'I' for Inactive)
REMARK    1  A    between atoms: O2_2  and  C7_12 
REMARK    2  A    between atoms: O2_2  and  C9_14 
REMARK    3  A    between atoms: O4_4  and  C11_16 
REMARK    4  A    between atoms: C9_14  and  C10_15 
REMARK    5  A    between atoms: C10_15  and  C11_16 
REMARK    6  A    between atoms: C10_15  and  C12_17 
ROOT
ATOM      1  O3  UNK     1      -1.481  41.017 229.058  1.00  0.00    -0.264 OA
ATOM      2  C9  UNK     1      -1.566  40.801 227.856  1.00  0.00     0.270 C 
ENDROOT
BRANCH   2   3
ATOM      3  O2  UNK     1      -2.467  39.948 227.271  1.00  0.00    -0.315 OA
BRANCH   3   4
ATOM      4  C7  UNK     1      -2.376  38.584 227.666  1.00  0.00     0.136 C 
ATOM      5  C5  UNK     1      -0.990  38.302 228.294  1.00  0.00     0.071 C 
ATOM      6  C3  UNK     1      -0.988  37.028 229.167  1.00  0.00     0.257 C 
ATOM      7  N1  UNK     1      -2.043  37.287 230.174  1.00  0.00     0.099 N 
ATOM      8  C1  UNK     1      -1.485  35.853 228.361  1.00  0.00     0.186 A 
ATOM      9  C4  UNK     1      -3.296  36.979 229.448  1.00  0.00     0.257 C 
ATOM     10  C8  UNK     1      -1.875  36.553 231.420  1.00  0.00     0.311 C 
ATOM     11  C2  UNK     1      -2.956  35.822 228.540  1.00  0.00     0.186 A 
ATOM     12  C6  UNK     1      -3.556  38.248 228.607  1.00  0.00     0.071 C 
ATOM     13  O1  UNK     1      -2.124  34.781 229.061  1.00  0.00    -0.371 OA
ENDBRANCH   3   4
ENDBRANCH   2   3
BRANCH   2  14
ATOM     14  C10 UNK     1      -0.693  41.446 226.783  1.00  0.00     0.142 C 
BRANCH  14  15
ATOM     15  C11 UNK     1      -0.951  40.789 225.419  1.00  0.00     0.183 C 
BRANCH  15  16
ATOM     16  O4  UNK     1      -1.939  41.533 224.713  1.00  0.00    -0.400 OA
ATOM     17  H18 UNK     1      -1.832  42.470 224.947  1.00  0.00     0.209 HD
ENDBRANCH  15  16
ENDBRANCH  14  15
BRANCH  14  18
ATOM     18  C12 UNK     1       0.775  41.404 227.176  1.00  0.00    -0.043 A 
ATOM     19  C13 UNK     1       1.518  40.283 226.870  1.00  0.00     0.008 A 
ATOM     20  C15 UNK     1       2.865  40.245 227.231  1.00  0.00     0.001 A 
ATOM     21  C17 UNK     1       3.440  41.331 227.891  1.00  0.00     0.000 A 
ATOM     22  C16 UNK     1       2.669  42.453 228.190  1.00  0.00     0.001 A 
ATOM     23  C14 UNK     1       1.323  42.492 227.830  1.00  0.00     0.008 A 
ENDBRANCH  14  18
ENDBRANCH   2  14
TORSDOF 6
ENDMDL
