MODEL 1
REMARK VINA RESULT:      -5.5      0.000      0.000
REMARK  8 active torsions:
REMARK  status: ('A' for Active; 'I' for Inactive)
REMARK    1  A    between atoms: O1_1  and  C13_16 
REMARK    2  A    between atoms: O1_1  and  C14_17 
REMARK    3  A    between atoms: N1_3  and  C15_18 
REMARK    4  A    between atoms: N1_3  and  C16_19 
REMARK    5  A    between atoms: N1_3  and  C17_20 
REMARK    6  A    between atoms: C1_4  and  C2_5 
REMARK    7  A    between atoms: C1_4  and  C13_16 
REMARK    8  A    between atoms: C14_17  and  C15_18 
ROOT
ATOM      1  C1  UNK     1       3.182  33.339 237.270  1.00  0.00     0.051 C 
ATOM      2  C3  UNK     1       4.233  32.447 237.956  1.00  0.00     0.020 C 
ATOM      3  C4  UNK     1       3.362  33.335 235.740  1.00  0.00     0.020 C 
ATOM      4  C7  UNK     1       4.310  31.044 237.352  1.00  0.00     0.001 C 
ATOM      5  C8  UNK     1       3.445  31.925 235.154  1.00  0.00     0.001 C 
ATOM      6  C11 UNK     1       4.519  31.090 235.842  1.00  0.00     0.000 C 
ENDROOT
BRANCH   1   7
ATOM      7  C2  UNK     1       3.287  34.767 237.802  1.00  0.00     0.004 C 
ATOM      8  C5  UNK     1       4.013  34.791 239.153  1.00  0.00     0.006 C 
ATOM      9  C9  UNK     1       4.176  36.215 239.680  1.00  0.00     0.000 C 
ATOM     10  C12 UNK     1       4.872  37.115 238.664  1.00  0.00     0.000 C 
ATOM     11  C10 UNK     1       4.157  37.096 237.316  1.00  0.00     0.000 C 
ATOM     12  C6  UNK     1       3.993  35.674 236.785  1.00  0.00     0.006 C 
ENDBRANCH   1   7
BRANCH   1  13
ATOM     13  C13 UNK     1       1.796  32.857 237.622  1.00  0.00     0.268 C 
ATOM     14  O2  UNK     1       1.545  32.128 238.572  1.00  0.00    -0.264 OA
BRANCH  13  15
ATOM     15  O1  UNK     1       0.898  33.357 236.726  1.00  0.00    -0.319 OA
BRANCH  15  16
ATOM     16  C14 UNK     1      -0.312  33.872 237.290  1.00  0.00     0.209 C 
BRANCH  16  17
ATOM     17  C15 UNK     1      -0.951  34.823 236.291  1.00  0.00     0.299 C 
BRANCH  17  18
ATOM     18  N1  UNK     1      -0.005  35.848 235.877  1.00  0.00     0.089 N 
BRANCH  18  19
ATOM     19  C16 UNK     1      -0.423  37.165 236.364  1.00  0.00     0.268 C 
ATOM     20  C18 UNK     1       0.630  37.771 237.278  1.00  0.00     0.037 C 
ENDBRANCH  18  19
BRANCH  18  21
ATOM     21  C17 UNK     1       0.133  35.869 234.419  1.00  0.00     0.268 C 
ATOM     22  C19 UNK     1       1.568  36.148 234.007  1.00  0.00     0.037 C 
ENDBRANCH  18  21
ENDBRANCH  17  18
ENDBRANCH  16  17
ENDBRANCH  15  16
ENDBRANCH  13  15
ENDBRANCH   1  13
TORSDOF 8
ENDMDL
MODEL 2
REMARK VINA RESULT:      -5.3      1.947      4.864
REMARK  8 active torsions:
REMARK  status: ('A' for Active; 'I' for Inactive)
REMARK    1  A    between atoms: O1_1  and  C13_16 
REMARK    2  A    between atoms: O1_1  and  C14_17 
REMARK    3  A    between atoms: N1_3  and  C15_18 
REMARK    4  A    between atoms: N1_3  and  C16_19 
REMARK    5  A    between atoms: N1_3  and  C17_20 
REMARK    6  A    between atoms: C1_4  and  C2_5 
REMARK    7  A    between atoms: C1_4  and  C13_16 
REMARK    8  A    between atoms: C14_17  and  C15_18 
ROOT
ATOM      1  C1  UNK     1       1.488  36.239 236.645  1.00  0.00     0.051 C 
ATOM      2  C3  UNK     1       1.017  37.652 237.036  1.00  0.00     0.020 C 
ATOM      3  C4  UNK     1       0.435  35.179 237.015  1.00  0.00     0.020 C 
ATOM      4  C7  UNK     1      -0.385  37.977 236.520  1.00  0.00     0.001 C 
ATOM      5  C8  UNK     1      -0.963  35.523 236.499  1.00  0.00     0.001 C 
ATOM      6  C11 UNK     1      -1.399  36.917 236.936  1.00  0.00     0.000 C 
ENDROOT
BRANCH   1   7
ATOM      7  C2  UNK     1       2.811  35.922 237.341  1.00  0.00     0.004 C 
ATOM      8  C5  UNK     1       3.322  37.143 238.116  1.00  0.00     0.006 C 
ATOM      9  C9  UNK     1       4.618  36.834 238.863  1.00  0.00     0.000 C 
ATOM     10  C12 UNK     1       4.465  35.623 239.779  1.00  0.00     0.000 C 
ATOM     11  C10 UNK     1       3.955  34.405 239.016  1.00  0.00     0.000 C 
ATOM     12  C6  UNK     1       2.659  34.709 238.268  1.00  0.00     0.006 C 
ENDBRANCH   1   7
BRANCH   1  13
ATOM     13  C13 UNK     1       1.767  36.186 235.163  1.00  0.00     0.268 C 
ATOM     14  O2  UNK     1       1.839  37.173 234.443  1.00  0.00    -0.264 OA
BRANCH  13  15
ATOM     15  O1  UNK     1       1.919  34.888 234.774  1.00  0.00    -0.319 OA
BRANCH  15  16
ATOM     16  C14 UNK     1       1.276  34.536 233.545  1.00  0.00     0.209 C 
BRANCH  16  17
ATOM     17  C15 UNK     1       1.076  33.028 233.513  1.00  0.00     0.299 C 
BRANCH  17  18
ATOM     18  N1  UNK     1       1.388  32.440 234.807  1.00  0.00     0.089 N 
BRANCH  18  19
ATOM     19  C16 UNK     1       2.472  31.462 234.682  1.00  0.00     0.268 C 
ATOM     20  C18 UNK     1       3.727  31.942 235.391  1.00  0.00     0.037 C 
ENDBRANCH  18  19
BRANCH  18  21
ATOM     21  C17 UNK     1       0.202  31.809 235.389  1.00  0.00     0.268 C 
ATOM     22  C19 UNK     1       0.401  31.526 236.868  1.00  0.00     0.037 C 
ENDBRANCH  18  21
ENDBRANCH  17  18
ENDBRANCH  16  17
ENDBRANCH  15  16
ENDBRANCH  13  15
ENDBRANCH   1  13
TORSDOF 8
ENDMDL
MODEL 3
REMARK VINA RESULT:      -5.3      2.507      4.650
REMARK  8 active torsions:
REMARK  status: ('A' for Active; 'I' for Inactive)
REMARK    1  A    between atoms: O1_1  and  C13_16 
REMARK    2  A    between atoms: O1_1  and  C14_17 
REMARK    3  A    between atoms: N1_3  and  C15_18 
REMARK    4  A    between atoms: N1_3  and  C16_19 
REMARK    5  A    between atoms: N1_3  and  C17_20 
REMARK    6  A    between atoms: C1_4  and  C2_5 
REMARK    7  A    between atoms: C1_4  and  C13_16 
REMARK    8  A    between atoms: C14_17  and  C15_18 
ROOT
ATOM      1  C1  UNK     1       1.220  36.224 236.523  1.00  0.00     0.051 C 
ATOM      2  C3  UNK     1       0.609  37.582 236.913  1.00  0.00     0.020 C 
ATOM      3  C4  UNK     1       0.300  35.061 236.937  1.00  0.00     0.020 C 
ATOM      4  C7  UNK     1      -0.836  37.745 236.437  1.00  0.00     0.001 C 
ATOM      5  C8  UNK     1      -1.142  35.243 236.461  1.00  0.00     0.001 C 
ATOM      6  C11 UNK     1      -1.715  36.587 236.896  1.00  0.00     0.000 C 
ENDROOT
BRANCH   1   7
ATOM      7  C2  UNK     1       2.589  36.063 237.180  1.00  0.00     0.004 C 
ATOM      8  C5  UNK     1       3.016  37.366 237.869  1.00  0.00     0.006 C 
ATOM      9  C9  UNK     1       4.360  37.214 238.579  1.00  0.00     0.000 C 
ATOM     10  C12 UNK     1       4.348  36.047 239.563  1.00  0.00     0.000 C 
ATOM     11  C10 UNK     1       3.923  34.748 238.885  1.00  0.00     0.000 C 
ATOM     12  C6  UNK     1       2.579  34.895 238.176  1.00  0.00     0.006 C 
ENDBRANCH   1   7
BRANCH   1  13
ATOM     13  C13 UNK     1       1.459  36.181 235.033  1.00  0.00     0.268 C 
ATOM     14  O2  UNK     1       1.846  37.136 234.373  1.00  0.00    -0.264 OA
BRANCH  13  15
ATOM     15  O1  UNK     1       1.176  34.932 234.562  1.00  0.00    -0.319 OA
BRANCH  15  16
ATOM     16  C14 UNK     1       1.213  34.790 233.139  1.00  0.00     0.209 C 
BRANCH  16  17
ATOM     17  C15 UNK     1      -0.211  34.634 232.627  1.00  0.00     0.299 C 
BRANCH  17  18
ATOM     18  N1  UNK     1      -0.673  35.866 232.006  1.00  0.00     0.089 N 
BRANCH  18  19
ATOM     19  C16 UNK     1      -1.633  36.554 232.874  1.00  0.00     0.268 C 
ATOM     20  C18 UNK     1      -2.808  35.654 233.214  1.00  0.00     0.037 C 
ENDBRANCH  18  19
BRANCH  18  21
ATOM     21  C17 UNK     1      -1.277  35.594 230.700  1.00  0.00     0.268 C 
ATOM     22  C19 UNK     1      -0.263  35.757 229.582  1.00  0.00     0.037 C 
ENDBRANCH  18  21
ENDBRANCH  17  18
ENDBRANCH  16  17
ENDBRANCH  15  16
ENDBRANCH  13  15
ENDBRANCH   1  13
TORSDOF 8
ENDMDL
MODEL 4
REMARK VINA RESULT:      -5.0      2.571      5.017
REMARK  8 active torsions:
REMARK  status: ('A' for Active; 'I' for Inactive)
REMARK    1  A    between atoms: O1_1  and  C13_16 
REMARK    2  A    between atoms: O1_1  and  C14_17 
REMARK    3  A    between atoms: N1_3  and  C15_18 
REMARK    4  A    between atoms: N1_3  and  C16_19 
REMARK    5  A    between atoms: N1_3  and  C17_20 
REMARK    6  A    between atoms: C1_4  and  C2_5 
REMARK    7  A    between atoms: C1_4  and  C13_16 
REMARK    8  A    between atoms: C14_17  and  C15_18 
ROOT
ATOM      1  C1  UNK     1       1.496  35.516 236.118  1.00  0.00     0.051 C 
ATOM      2  C3  UNK     1       2.616  34.510 236.440  1.00  0.00     0.020 C 
ATOM      3  C4  UNK     1       1.570  36.746 237.043  1.00  0.00     0.020 C 
ATOM      4  C7  UNK     1       4.002  35.156 236.490  1.00  0.00     0.001 C 
ATOM      5  C8  UNK     1       2.964  37.374 237.088  1.00  0.00     0.001 C 
ATOM      6  C11 UNK     1       4.034  36.348 237.440  1.00  0.00     0.000 C 
ENDROOT
BRANCH   1   7
ATOM      7  C2  UNK     1       0.134  34.840 236.261  1.00  0.00     0.004 C 
ATOM      8  C5  UNK     1       0.170  33.777 237.366  1.00  0.00     0.006 C 
ATOM      9  C9  UNK     1      -1.196  33.123 237.564  1.00  0.00     0.000 C 
ATOM     10  C12 UNK     1      -2.284  34.159 237.829  1.00  0.00     0.000 C 
ATOM     11  C10 UNK     1      -2.325  35.221 236.734  1.00  0.00     0.000 C 
ATOM     12  C6  UNK     1      -0.961  35.879 236.535  1.00  0.00     0.006 C 
ENDBRANCH   1   7
BRANCH   1  13
ATOM     13  C13 UNK     1       1.602  35.954 234.677  1.00  0.00     0.268 C 
ATOM     14  O2  UNK     1       1.791  37.110 234.325  1.00  0.00    -0.264 OA
BRANCH  13  15
ATOM     15  O1  UNK     1       1.452  34.872 233.861  1.00  0.00    -0.319 OA
BRANCH  15  16
ATOM     16  C14 UNK     1       1.247  35.172 232.476  1.00  0.00     0.209 C 
BRANCH  16  17
ATOM     17  C15 UNK     1      -0.202  34.873 232.122  1.00  0.00     0.299 C 
BRANCH  17  18
ATOM     18  N1  UNK     1      -0.907  36.095 231.766  1.00  0.00     0.089 N 
BRANCH  18  19
ATOM     19  C16 UNK     1      -1.750  36.548 232.876  1.00  0.00     0.268 C 
ATOM     20  C18 UNK     1      -2.943  35.627 233.069  1.00  0.00     0.037 C 
ENDBRANCH  18  19
BRANCH  18  21
ATOM     21  C17 UNK     1      -1.719  35.894 230.564  1.00  0.00     0.268 C 
ATOM     22  C19 UNK     1      -1.226  36.759 229.418  1.00  0.00     0.037 C 
ENDBRANCH  18  21
ENDBRANCH  17  18
ENDBRANCH  16  17
ENDBRANCH  15  16
ENDBRANCH  13  15
ENDBRANCH   1  13
TORSDOF 8
ENDMDL
MODEL 5
REMARK VINA RESULT:      -4.9      2.172      6.171
REMARK  8 active torsions:
REMARK  status: ('A' for Active; 'I' for Inactive)
REMARK    1  A    between atoms: O1_1  and  C13_16 
REMARK    2  A    between atoms: O1_1  and  C14_17 
REMARK    3  A    between atoms: N1_3  and  C15_18 
REMARK    4  A    between atoms: N1_3  and  C16_19 
REMARK    5  A    between atoms: N1_3  and  C17_20 
REMARK    6  A    between atoms: C1_4  and  C2_5 
REMARK    7  A    between atoms: C1_4  and  C13_16 
REMARK    8  A    between atoms: C14_17  and  C15_18 
ROOT
ATOM      1  C1  UNK     1       0.120  35.639 235.687  1.00  0.00     0.051 C 
ATOM      2  C3  UNK     1      -1.389  35.941 235.676  1.00  0.00     0.020 C 
ATOM      3  C4  UNK     1       0.947  36.937 235.754  1.00  0.00     0.020 C 
ATOM      4  C7  UNK     1      -1.817  36.882 236.804  1.00  0.00     0.001 C 
ATOM      5  C8  UNK     1       0.501  37.869 236.881  1.00  0.00     0.001 C 
ATOM      6  C11 UNK     1      -0.993  38.165 236.812  1.00  0.00     0.000 C 
ENDROOT
BRANCH   1   7
ATOM      7  C2  UNK     1       0.499  34.845 234.438  1.00  0.00     0.004 C 
ATOM      8  C5  UNK     1      -0.690  34.012 233.943  1.00  0.00     0.006 C 
ATOM      9  C9  UNK     1      -0.351  33.249 232.664  1.00  0.00     0.000 C 
ATOM     10  C12 UNK     1       0.162  34.183 231.571  1.00  0.00     0.000 C 
ATOM     11  C10 UNK     1       1.344  35.017 232.056  1.00  0.00     0.000 C 
ATOM     12  C6  UNK     1       1.008  35.782 233.334  1.00  0.00     0.006 C 
ENDBRANCH   1   7
BRANCH   1  13
ATOM     13  C13 UNK     1       0.456  34.758 236.866  1.00  0.00     0.268 C 
ATOM     14  O2  UNK     1      -0.359  34.061 237.454  1.00  0.00    -0.264 OA
BRANCH  13  15
ATOM     15  O1  UNK     1       1.784  34.871 237.155  1.00  0.00    -0.319 OA
BRANCH  15  16
ATOM     16  C14 UNK     1       2.296  33.902 238.075  1.00  0.00     0.209 C 
BRANCH  16  17
ATOM     17  C15 UNK     1       3.722  33.555 237.676  1.00  0.00     0.299 C 
BRANCH  17  18
ATOM     18  N1  UNK     1       3.769  32.265 237.003  1.00  0.00     0.089 N 
BRANCH  18  19
ATOM     19  C16 UNK     1       4.981  31.532 237.375  1.00  0.00     0.268 C 
ATOM     20  C18 UNK     1       5.201  30.337 236.462  1.00  0.00     0.037 C 
ENDBRANCH  18  19
BRANCH  18  21
ATOM     21  C17 UNK     1       3.708  32.436 235.549  1.00  0.00     0.268 C 
ATOM     22  C19 UNK     1       2.391  31.925 234.992  1.00  0.00     0.037 C 
ENDBRANCH  18  21
ENDBRANCH  17  18
ENDBRANCH  16  17
ENDBRANCH  15  16
ENDBRANCH  13  15
ENDBRANCH   1  13
TORSDOF 8
ENDMDL
MODEL 6
REMARK VINA RESULT:      -4.9      2.769      5.211
REMARK  8 active torsions:
REMARK  status: ('A' for Active; 'I' for Inactive)
REMARK    1  A    between atoms: O1_1  and  C13_16 
REMARK    2  A    between atoms: O1_1  and  C14_17 
REMARK    3  A    between atoms: N1_3  and  C15_18 
REMARK    4  A    between atoms: N1_3  and  C16_19 
REMARK    5  A    between atoms: N1_3  and  C17_20 
REMARK    6  A    between atoms: C1_4  and  C2_5 
REMARK    7  A    between atoms: C1_4  and  C13_16 
REMARK    8  A    between atoms: C14_17  and  C15_18 
ROOT
ATOM      1  C1  UNK     1       1.319  35.511 235.910  1.00  0.00     0.051 C 
ATOM      2  C3  UNK     1       2.192  36.499 236.704  1.00  0.00     0.020 C 
ATOM      3  C4  UNK     1      -0.153  35.586 236.357  1.00  0.00     0.020 C 
ATOM      4  C7  UNK     1       1.627  37.920 236.714  1.00  0.00     0.001 C 
ATOM      5  C8  UNK     1      -0.700  37.014 236.369  1.00  0.00     0.001 C 
ATOM      6  C11 UNK     1       0.180  37.948 237.192  1.00  0.00     0.000 C 
ENDROOT
BRANCH   1   7
ATOM      7  C2  UNK     1       1.847  34.089 236.093  1.00  0.00     0.004 C 
ATOM      8  C5  UNK     1       3.375  34.058 235.967  1.00  0.00     0.006 C 
ATOM      9  C9  UNK     1       3.931  32.654 236.199  1.00  0.00     0.000 C 
ATOM     10  C12 UNK     1       3.475  32.082 237.538  1.00  0.00     0.000 C 
ATOM     11  C10 UNK     1       1.956  32.111 237.671  1.00  0.00     0.000 C 
ATOM     12  C6  UNK     1       1.396  33.513 237.442  1.00  0.00     0.006 C 
ENDBRANCH   1   7
BRANCH   1  13
ATOM     13  C13 UNK     1       1.420  35.812 234.434  1.00  0.00     0.268 C 
ATOM     14  O2  UNK     1       2.161  36.661 233.957  1.00  0.00    -0.264 OA
BRANCH  13  15
ATOM     15  O1  UNK     1       0.567  35.002 233.744  1.00  0.00    -0.319 OA
BRANCH  15  16
ATOM     16  C14 UNK     1       0.103  35.521 232.494  1.00  0.00     0.209 C 
BRANCH  16  17
ATOM     17  C15 UNK     1      -1.161  36.329 232.739  1.00  0.00     0.299 C 
BRANCH  17  18
ATOM     18  N1  UNK     1      -1.795  36.690 231.480  1.00  0.00     0.089 N 
BRANCH  18  19
ATOM     19  C16 UNK     1      -3.222  36.360 231.506  1.00  0.00     0.268 C 
ATOM     20  C18 UNK     1      -3.541  35.390 232.631  1.00  0.00     0.037 C 
ENDBRANCH  18  19
BRANCH  18  21
ATOM     21  C17 UNK     1      -1.140  36.014 230.358  1.00  0.00     0.268 C 
ATOM     22  C19 UNK     1      -2.082  35.875 229.175  1.00  0.00     0.037 C 
ENDBRANCH  18  21
ENDBRANCH  17  18
ENDBRANCH  16  17
ENDBRANCH  15  16
ENDBRANCH  13  15
ENDBRANCH   1  13
TORSDOF 8
ENDMDL
MODEL 7
REMARK VINA RESULT:      -4.9      2.170      6.017
REMARK  8 active torsions:
REMARK  status: ('A' for Active; 'I' for Inactive)
REMARK    1  A    between atoms: O1_1  and  C13_16 
REMARK    2  A    between atoms: O1_1  and  C14_17 
REMARK    3  A    between atoms: N1_3  and  C15_18 
REMARK    4  A    between atoms: N1_3  and  C16_19 
REMARK    5  A    between atoms: N1_3  and  C17_20 
REMARK    6  A    between atoms: C1_4  and  C2_5 
REMARK    7  A    between atoms: C1_4  and  C13_16 
REMARK    8  A    between atoms: C14_17  and  C15_18 
ROOT
ATOM      1  C1  UNK     1      -0.602  35.730 235.583  1.00  0.00     0.051 C 
ATOM      2  C3  UNK     1       0.046  34.425 236.080  1.00  0.00     0.020 C 
ATOM      3  C4  UNK     1      -2.137  35.660 235.680  1.00  0.00     0.020 C 
ATOM      4  C7  UNK     1      -0.461  33.993 237.456  1.00  0.00     0.001 C 
ATOM      5  C8  UNK     1      -2.628  35.219 237.059  1.00  0.00     0.001 C 
ATOM      6  C11 UNK     1      -1.983  33.908 237.495  1.00  0.00     0.000 C 
ENDROOT
BRANCH   1   7
ATOM      7  C2  UNK     1      -0.184  36.001 234.139  1.00  0.00     0.004 C 
ATOM      8  C5  UNK     1       0.812  34.939 233.655  1.00  0.00     0.006 C 
ATOM      9  C9  UNK     1       1.205  35.158 232.196  1.00  0.00     0.000 C 
ATOM     10  C12 UNK     1      -0.019  35.222 231.287  1.00  0.00     0.000 C 
ATOM     11  C10 UNK     1      -1.015  36.275 231.762  1.00  0.00     0.000 C 
ATOM     12  C6  UNK     1      -1.412  36.058 233.220  1.00  0.00     0.006 C 
ENDBRANCH   1   7
BRANCH   1  13
ATOM     13  C13 UNK     1      -0.092  36.895 236.396  1.00  0.00     0.268 C 
ATOM     14  O2  UNK     1      -0.698  37.948 236.540  1.00  0.00    -0.264 OA
BRANCH  13  15
ATOM     15  O1  UNK     1       1.126  36.583 236.926  1.00  0.00    -0.319 OA
BRANCH  15  16
ATOM     16  C14 UNK     1       2.234  37.310 236.387  1.00  0.00     0.209 C 
BRANCH  16  17
ATOM     17  C15 UNK     1       3.324  37.394 237.445  1.00  0.00     0.299 C 
BRANCH  17  18
ATOM     18  N1  UNK     1       4.178  36.217 237.399  1.00  0.00     0.089 N 
BRANCH  18  19
ATOM     19  C16 UNK     1       3.929  35.444 236.179  1.00  0.00     0.268 C 
ATOM     20  C18 UNK     1       3.767  33.966 236.490  1.00  0.00     0.037 C 
ENDBRANCH  18  19
BRANCH  18  21
ATOM     21  C17 UNK     1       3.968  35.378 238.580  1.00  0.00     0.268 C 
ATOM     22  C19 UNK     1       4.414  36.089 239.846  1.00  0.00     0.037 C 
ENDBRANCH  18  21
ENDBRANCH  17  18
ENDBRANCH  16  17
ENDBRANCH  15  16
ENDBRANCH  13  15
ENDBRANCH   1  13
TORSDOF 8
ENDMDL
MODEL 8
REMARK VINA RESULT:      -4.8      2.207      5.720
REMARK  8 active torsions:
REMARK  status: ('A' for Active; 'I' for Inactive)
REMARK    1  A    between atoms: O1_1  and  C13_16 
REMARK    2  A    between atoms: O1_1  and  C14_17 
REMARK    3  A    between atoms: N1_3  and  C15_18 
REMARK    4  A    between atoms: N1_3  and  C16_19 
REMARK    5  A    between atoms: N1_3  and  C17_20 
REMARK    6  A    between atoms: C1_4  and  C2_5 
REMARK    7  A    between atoms: C1_4  and  C13_16 
REMARK    8  A    between atoms: C14_17  and  C15_18 
ROOT
ATOM      1  C1  UNK     1       0.086  34.394 235.124  1.00  0.00     0.051 C 
ATOM      2  C3  UNK     1      -1.201  33.557 235.247  1.00  0.00     0.020 C 
ATOM      3  C4  UNK     1      -0.220  35.901 235.202  1.00  0.00     0.020 C 
ATOM      4  C7  UNK     1      -2.051  33.947 236.457  1.00  0.00     0.001 C 
ATOM      5  C8  UNK     1      -1.078  36.272 236.412  1.00  0.00     0.001 C 
ATOM      6  C11 UNK     1      -2.354  35.441 236.475  1.00  0.00     0.000 C 
ENDROOT
BRANCH   1   7
ATOM      7  C2  UNK     1       0.788  34.074 233.805  1.00  0.00     0.004 C 
ATOM      8  C5  UNK     1       0.222  32.789 233.187  1.00  0.00     0.006 C 
ATOM      9  C9  UNK     1       0.872  32.477 231.840  1.00  0.00     0.000 C 
ATOM     10  C12 UNK     1       0.758  33.652 230.874  1.00  0.00     0.000 C 
ATOM     11  C10 UNK     1       1.318  34.934 231.483  1.00  0.00     0.000 C 
ATOM     12  C6  UNK     1       0.669  35.251 232.828  1.00  0.00     0.006 C 
ENDBRANCH   1   7
BRANCH   1  13
ATOM     13  C13 UNK     1       1.051  34.011 236.220  1.00  0.00     0.268 C 
ATOM     14  O2  UNK     1       0.722  33.802 237.380  1.00  0.00    -0.264 OA
BRANCH  13  15
ATOM     15  O1  UNK     1       2.314  33.942 235.711  1.00  0.00    -0.319 OA
BRANCH  15  16
ATOM     16  C14 UNK     1       3.368  34.162 236.653  1.00  0.00     0.209 C 
BRANCH  16  17
ATOM     17  C15 UNK     1       4.023  35.501 236.348  1.00  0.00     0.299 C 
BRANCH  17  18
ATOM     18  N1  UNK     1       4.356  36.203 237.579  1.00  0.00     0.089 N 
BRANCH  18  19
ATOM     19  C16 UNK     1       3.836  35.482 238.743  1.00  0.00     0.268 C 
ATOM     20  C18 UNK     1       4.393  36.054 240.036  1.00  0.00     0.037 C 
ENDBRANCH  18  19
BRANCH  18  21
ATOM     21  C17 UNK     1       3.829  37.570 237.554  1.00  0.00     0.268 C 
ATOM     22  C19 UNK     1       2.392  37.595 237.066  1.00  0.00     0.037 C 
ENDBRANCH  18  21
ENDBRANCH  17  18
ENDBRANCH  16  17
ENDBRANCH  15  16
ENDBRANCH  13  15
ENDBRANCH   1  13
TORSDOF 8
ENDMDL
MODEL 9
REMARK VINA RESULT:      -4.8      9.935     12.799
REMARK  8 active torsions:
REMARK  status: ('A' for Active; 'I' for Inactive)
REMARK    1  A    between atoms: O1_1  and  C13_16 
REMARK    2  A    between atoms: O1_1  and  C14_17 
REMARK    3  A    between atoms: N1_3  and  C15_18 
REMARK    4  A    between atoms: N1_3  and  C16_19 
REMARK    5  A    between atoms: N1_3  and  C17_20 
REMARK    6  A    between atoms: C1_4  and  C2_5 
REMARK    7  A    between atoms: C1_4  and  C13_16 
REMARK    8  A    between atoms: C14_17  and  C15_18 
ROOT
ATOM      1  C1  UNK     1       0.085  40.359 227.399  1.00  0.00     0.051 C 
ATOM      2  C3  UNK     1       1.361  40.210 226.551  1.00  0.00     0.020 C 
ATOM      3  C4  UNK     1       0.381  41.078 228.728  1.00  0.00     0.020 C 
ATOM      4  C7  UNK     1       2.119  41.527 226.378  1.00  0.00     0.001 C 
ATOM      5  C8  UNK     1       1.147  42.388 228.538  1.00  0.00     0.001 C 
ATOM      6  C11 UNK     1       2.417  42.187 227.720  1.00  0.00     0.000 C 
ENDROOT
BRANCH   1   7
ATOM      7  C2  UNK     1      -0.518  38.983 227.676  1.00  0.00     0.004 C 
ATOM      8  C5  UNK     1       0.586  37.938 227.878  1.00  0.00     0.006 C 
ATOM      9  C9  UNK     1       0.008  36.563 228.209  1.00  0.00     0.000 C 
ATOM     10  C12 UNK     1      -0.925  36.621 229.415  1.00  0.00     0.000 C 
ATOM     11  C10 UNK     1      -2.026  37.659 229.222  1.00  0.00     0.000 C 
ATOM     12  C6  UNK     1      -1.452  39.035 228.893  1.00  0.00     0.006 C 
ENDBRANCH   1   7
BRANCH   1  13
ATOM     13  C13 UNK     1      -0.957  41.128 226.624  1.00  0.00     0.268 C 
ATOM     14  O2  UNK     1      -1.510  42.139 227.036  1.00  0.00    -0.264 OA
BRANCH  13  15
ATOM     15  O1  UNK     1      -1.172  40.520 225.422  1.00  0.00    -0.319 OA
BRANCH  15  16
ATOM     16  C14 UNK     1      -2.378  40.897 224.750  1.00  0.00     0.209 C 
BRANCH  16  17
ATOM     17  C15 UNK     1      -3.165  39.639 224.417  1.00  0.00     0.299 C 
BRANCH  17  18
ATOM     18  N1  UNK     1      -4.595  39.906 224.434  1.00  0.00     0.089 N 
BRANCH  18  19
ATOM     19  C16 UNK     1      -4.851  41.340 224.591  1.00  0.00     0.268 C 
ATOM     20  C18 UNK     1      -6.334  41.615 224.775  1.00  0.00     0.037 C 
ENDBRANCH  18  19
BRANCH  18  21
ATOM     21  C17 UNK     1      -5.250  39.155 225.507  1.00  0.00     0.268 C 
ATOM     22  C19 UNK     1      -4.255  38.286 226.255  1.00  0.00     0.037 C 
ENDBRANCH  18  21
ENDBRANCH  17  18
ENDBRANCH  16  17
ENDBRANCH  15  16
ENDBRANCH  13  15
ENDBRANCH   1  13
TORSDOF 8
ENDMDL
