MODEL 1
REMARK VINA RESULT:      -4.6      0.000      0.000
REMARK  3 active torsions:
REMARK  status: ('A' for Active; 'I' for Inactive)
REMARK    1  A    between atoms: O1_7  and  C1_8 
REMARK    2  A    between atoms: O1_7  and  C3_10 
REMARK    3  A    between atoms: C1_8  and  C2_9 
ROOT
ATOM      1  F1  UNK     1       1.826  42.197 229.807  1.00  0.00    -0.171 F 
ATOM      2  F2  UNK     1       1.945  43.297 227.920  1.00  0.00    -0.171 F 
ATOM      3  C1  UNK     1       2.344  42.169 228.553  1.00  0.00     0.402 C 
ENDROOT
BRANCH   3   4
ATOM      4  O1  UNK     1       1.830  41.027 227.877  1.00  0.00    -0.260 OA
BRANCH   4   5
ATOM      5  C3  UNK     1       1.373  41.325 226.570  1.00  0.00     0.504 C 
ATOM      6  F4  UNK     1       0.615  40.280 226.152  1.00  0.00    -0.184 F 
ATOM      7  F5  UNK     1       2.440  41.394 225.738  1.00  0.00    -0.184 F 
ENDBRANCH   4   5
ENDBRANCH   3   4
BRANCH   3   8
ATOM      8  C2  UNK     1       3.853  42.113 228.643  1.00  0.00     0.368 C 
ATOM      9 Cl1  UNK     1       4.408  42.154 230.330  1.00  0.00    -0.080 Cl
ATOM     10  F3  UNK     1       4.280  40.955 228.072  1.00  0.00    -0.223 F 
ENDBRANCH   3   8
TORSDOF 3
ENDMDL
MODEL 2
REMARK VINA RESULT:      -4.5      2.500      3.163
REMARK  3 active torsions:
REMARK  status: ('A' for Active; 'I' for Inactive)
REMARK    1  A    between atoms: O1_7  and  C1_8 
REMARK    2  A    between atoms: O1_7  and  C3_10 
REMARK    3  A    between atoms: C1_8  and  C2_9 
ROOT
ATOM      1  F1  UNK     1       1.454  40.511 228.589  1.00  0.00    -0.171 F 
ATOM      2  F2  UNK     1       1.736  42.152 230.009  1.00  0.00    -0.171 F 
ATOM      3  C1  UNK     1       1.335  41.854 228.751  1.00  0.00     0.402 C 
ENDROOT
BRANCH   3   4
ATOM      4  O1  UNK     1      -0.033  42.210 228.581  1.00  0.00    -0.260 OA
BRANCH   4   5
ATOM      5  C3  UNK     1      -0.815  41.149 228.066  1.00  0.00     0.504 C 
ATOM      6  F4  UNK     1      -1.447  41.606 226.956  1.00  0.00    -0.184 F 
ATOM      7  F5  UNK     1      -1.779  40.838 228.966  1.00  0.00    -0.184 F 
ENDBRANCH   4   5
ENDBRANCH   3   4
BRANCH   3   8
ATOM      8  C2  UNK     1       2.209  42.553 227.733  1.00  0.00     0.368 C 
ATOM      9 Cl1  UNK     1       2.177  41.720 226.164  1.00  0.00    -0.080 Cl
ATOM     10  F3  UNK     1       1.748  43.820 227.562  1.00  0.00    -0.223 F 
ENDBRANCH   3   8
TORSDOF 3
ENDMDL
MODEL 3
REMARK VINA RESULT:      -4.5      1.326      2.521
REMARK  3 active torsions:
REMARK  status: ('A' for Active; 'I' for Inactive)
REMARK    1  A    between atoms: O1_7  and  C1_8 
REMARK    2  A    between atoms: O1_7  and  C3_10 
REMARK    3  A    between atoms: C1_8  and  C2_9 
ROOT
ATOM      1  F1  UNK     1       2.261  42.133 225.942  1.00  0.00    -0.171 F 
ATOM      2  F2  UNK     1       3.315  40.551 227.026  1.00  0.00    -0.171 F 
ATOM      3  C1  UNK     1       2.277  41.418 227.095  1.00  0.00     0.402 C 
ENDROOT
BRANCH   3   4
ATOM      4  O1  UNK     1       1.053  40.699 227.199  1.00  0.00    -0.260 OA
BRANCH   4   5
ATOM      5  C3  UNK     1      -0.030  41.370 226.581  1.00  0.00     0.504 C 
ATOM      6  F4  UNK     1      -0.984  41.565 227.526  1.00  0.00    -0.184 F 
ATOM      7  F5  UNK     1      -0.569  40.558 225.640  1.00  0.00    -0.184 F 
ENDBRANCH   4   5
ENDBRANCH   3   4
BRANCH   3   8
ATOM      8  C2  UNK     1       2.452  42.365 228.261  1.00  0.00     0.368 C 
ATOM      9 Cl1  UNK     1       4.138  42.410 228.818  1.00  0.00    -0.080 Cl
ATOM     10  F3  UNK     1       2.092  43.615 227.863  1.00  0.00    -0.223 F 
ENDBRANCH   3   8
TORSDOF 3
ENDMDL
MODEL 4
REMARK VINA RESULT:      -4.5      1.990      3.649
REMARK  3 active torsions:
REMARK  status: ('A' for Active; 'I' for Inactive)
REMARK    1  A    between atoms: O1_7  and  C1_8 
REMARK    2  A    between atoms: O1_7  and  C3_10 
REMARK    3  A    between atoms: C1_8  and  C2_9 
ROOT
ATOM      1  F1  UNK     1       3.451  40.142 227.186  1.00  0.00    -0.171 F 
ATOM      2  F2  UNK     1       2.479  41.440 225.717  1.00  0.00    -0.171 F 
ATOM      3  C1  UNK     1       2.430  41.017 227.002  1.00  0.00     0.402 C 
ENDROOT
BRANCH   3   4
ATOM      4  O1  UNK     1       2.615  42.119 227.883  1.00  0.00    -0.260 OA
BRANCH   4   5
ATOM      5  C3  UNK     1       3.597  41.871 228.872  1.00  0.00     0.504 C 
ATOM      6  F4  UNK     1       2.983  41.912 230.081  1.00  0.00    -0.184 F 
ATOM      7  F5  UNK     1       4.501  42.881 228.856  1.00  0.00    -0.184 F 
ENDBRANCH   4   5
ENDBRANCH   3   4
BRANCH   3   8
ATOM      8  C2  UNK     1       1.121  40.312 227.281  1.00  0.00     0.368 C 
ATOM      9 Cl1  UNK     1       0.096  41.254 228.385  1.00  0.00    -0.080 Cl
ATOM     10  F3  UNK     1       0.457  40.148 226.105  1.00  0.00    -0.223 F 
ENDBRANCH   3   8
TORSDOF 3
ENDMDL
MODEL 5
REMARK VINA RESULT:      -4.4      2.242      3.659
REMARK  3 active torsions:
REMARK  status: ('A' for Active; 'I' for Inactive)
REMARK    1  A    between atoms: O1_7  and  C1_8 
REMARK    2  A    between atoms: O1_7  and  C3_10 
REMARK    3  A    between atoms: C1_8  and  C2_9 
ROOT
ATOM      1  F1  UNK     1       2.210  43.476 227.980  1.00  0.00    -0.171 F 
ATOM      2  F2  UNK     1       0.799  42.379 229.243  1.00  0.00    -0.171 F 
ATOM      3  C1  UNK     1       1.847  42.237 228.397  1.00  0.00     0.402 C 
ENDROOT
BRANCH   3   4
ATOM      4  O1  UNK     1       2.947  41.650 229.084  1.00  0.00    -0.260 OA
BRANCH   4   5
ATOM      5  C3  UNK     1       4.076  42.501 229.137  1.00  0.00     0.504 C 
ATOM      6  F4  UNK     1       5.064  41.919 228.411  1.00  0.00    -0.184 F 
ATOM      7  F5  UNK     1       4.516  42.568 230.416  1.00  0.00    -0.184 F 
ENDBRANCH   4   5
ENDBRANCH   3   4
BRANCH   3   8
ATOM      8  C2  UNK     1       1.452  41.408 227.195  1.00  0.00     0.368 C 
ATOM      9 Cl1  UNK     1      -0.185  41.811 226.634  1.00  0.00    -0.080 Cl
ATOM     10  F3  UNK     1       2.330  41.657 226.187  1.00  0.00    -0.223 F 
ENDBRANCH   3   8
TORSDOF 3
ENDMDL
MODEL 6
REMARK VINA RESULT:      -4.2      9.820     10.810
REMARK  3 active torsions:
REMARK  status: ('A' for Active; 'I' for Inactive)
REMARK    1  A    between atoms: O1_7  and  C1_8 
REMARK    2  A    between atoms: O1_7  and  C3_10 
REMARK    3  A    between atoms: C1_8  and  C2_9 
ROOT
ATOM      1  F1  UNK     1       1.752  38.244 236.153  1.00  0.00    -0.171 F 
ATOM      2  F2  UNK     1       0.359  38.133 237.837  1.00  0.00    -0.171 F 
ATOM      3  C1  UNK     1       1.300  37.442 237.151  1.00  0.00     0.402 C 
ENDROOT
BRANCH   3   4
ATOM      4  O1  UNK     1       2.391  37.129 238.009  1.00  0.00    -0.260 OA
BRANCH   4   5
ATOM      5  C3  UNK     1       3.643  37.503 237.463  1.00  0.00     0.504 C 
ATOM      6  F4  UNK     1       4.175  36.407 236.866  1.00  0.00    -0.184 F 
ATOM      7  F5  UNK     1       4.478  37.845 238.473  1.00  0.00    -0.184 F 
ENDBRANCH   4   5
ENDBRANCH   3   4
BRANCH   3   8
ATOM      8  C2  UNK     1       0.706  36.189 236.547  1.00  0.00     0.368 C 
ATOM      9 Cl1  UNK     1       1.441  35.811 234.974  1.00  0.00    -0.080 Cl
ATOM     10  F3  UNK     1       0.932  35.149 237.394  1.00  0.00    -0.223 F 
ENDBRANCH   3   8
TORSDOF 3
ENDMDL
MODEL 7
REMARK VINA RESULT:      -4.1      9.831     10.945
REMARK  3 active torsions:
REMARK  status: ('A' for Active; 'I' for Inactive)
REMARK    1  A    between atoms: O1_7  and  C1_8 
REMARK    2  A    between atoms: O1_7  and  C3_10 
REMARK    3  A    between atoms: C1_8  and  C2_9 
ROOT
ATOM      1  F1  UNK     1       1.305  38.351 236.044  1.00  0.00    -0.171 F 
ATOM      2  F2  UNK     1       0.779  38.080 238.150  1.00  0.00    -0.171 F 
ATOM      3  C1  UNK     1       0.526  37.638 236.896  1.00  0.00     0.402 C 
ENDROOT
BRANCH   3   4
ATOM      4  O1  UNK     1       0.876  36.263 236.787  1.00  0.00    -0.260 OA
BRANCH   4   5
ATOM      5  C3  UNK     1       2.125  35.967 237.386  1.00  0.00     0.504 C 
ATOM      6  F4  UNK     1       3.016  35.741 236.388  1.00  0.00    -0.184 F 
ATOM      7  F5  UNK     1       2.013  34.811 238.083  1.00  0.00    -0.184 F 
ENDBRANCH   4   5
ENDBRANCH   3   4
BRANCH   3   8
ATOM      8  C2  UNK     1      -0.927  37.859 236.537  1.00  0.00     0.368 C 
ATOM      9 Cl1  UNK     1      -1.843  36.336 236.562  1.00  0.00    -0.080 Cl
ATOM     10  F3  UNK     1      -1.474  38.710 237.445  1.00  0.00    -0.223 F 
ENDBRANCH   3   8
TORSDOF 3
ENDMDL
MODEL 8
REMARK VINA RESULT:      -4.1      9.089      9.888
REMARK  3 active torsions:
REMARK  status: ('A' for Active; 'I' for Inactive)
REMARK    1  A    between atoms: O1_7  and  C1_8 
REMARK    2  A    between atoms: O1_7  and  C3_10 
REMARK    3  A    between atoms: C1_8  and  C2_9 
ROOT
ATOM      1  F1  UNK     1       1.054  36.000 237.063  1.00  0.00    -0.171 F 
ATOM      2  F2  UNK     1       0.682  38.150 237.232  1.00  0.00    -0.171 F 
ATOM      3  C1  UNK     1       1.621  37.225 236.922  1.00  0.00     0.402 C 
ENDROOT
BRANCH   3   4
ATOM      4  O1  UNK     1       2.027  37.383 235.567  1.00  0.00    -0.260 OA
BRANCH   4   5
ATOM      5  C3  UNK     1       2.074  36.155 234.864  1.00  0.00     0.504 C 
ATOM      6  F4  UNK     1       3.210  35.512 235.236  1.00  0.00    -0.184 F 
ATOM      7  F5  UNK     1       2.185  36.413 233.539  1.00  0.00    -0.184 F 
ENDBRANCH   4   5
ENDBRANCH   3   4
BRANCH   3   8
ATOM      8  C2  UNK     1       2.804  37.333 237.860  1.00  0.00     0.368 C 
ATOM      9 Cl1  UNK     1       3.304  35.739 238.464  1.00  0.00    -0.080 Cl
ATOM     10  F3  UNK     1       3.845  37.888 237.184  1.00  0.00    -0.223 F 
ENDBRANCH   3   8
TORSDOF 3
ENDMDL
MODEL 9
REMARK VINA RESULT:      -4.0     10.185     10.623
REMARK  3 active torsions:
REMARK  status: ('A' for Active; 'I' for Inactive)
REMARK    1  A    between atoms: O1_7  and  C1_8 
REMARK    2  A    between atoms: O1_7  and  C3_10 
REMARK    3  A    between atoms: C1_8  and  C2_9 
ROOT
ATOM      1  F1  UNK     1       2.932  37.122 238.679  1.00  0.00    -0.171 F 
ATOM      2  F2  UNK     1       4.321  38.176 237.358  1.00  0.00    -0.171 F 
ATOM      3  C1  UNK     1       3.344  37.240 237.391  1.00  0.00     0.402 C 
ENDROOT
BRANCH   3   4
ATOM      4  O1  UNK     1       2.240  37.665 236.600  1.00  0.00    -0.260 OA
BRANCH   4   5
ATOM      5  C3  UNK     1       1.007  37.580 237.290  1.00  0.00     0.504 C 
ATOM      6  F4  UNK     1       0.530  36.321 237.126  1.00  0.00    -0.184 F 
ATOM      7  F5  UNK     1       0.117  38.417 236.704  1.00  0.00    -0.184 F 
ENDBRANCH   4   5
ENDBRANCH   3   4
BRANCH   3   8
ATOM      8  C2  UNK     1       3.870  35.904 236.917  1.00  0.00     0.368 C 
ATOM      9 Cl1  UNK     1       3.391  34.588 238.011  1.00  0.00    -0.080 Cl
ATOM     10  F3  UNK     1       3.360  35.650 235.682  1.00  0.00    -0.223 F 
ENDBRANCH   3   8
TORSDOF 3
ENDMDL
