MODEL 1
REMARK VINA RESULT:      -6.4      0.000      0.000
REMARK  5 active torsions:
REMARK  status: ('A' for Active; 'I' for Inactive)
REMARK    1  A    between atoms: O1_1  and  C2_5 
REMARK    2  A    between atoms: O2_2  and  C13_16 
REMARK    3  A    between atoms: N1_3  and  C7_10 
REMARK    4  A    between atoms: C1_4  and  C7_10 
REMARK    5  A    between atoms: C2_5  and  C8_11 
ROOT
ATOM      1  C1  UNK     1      -1.176  39.403 227.677  1.00  0.00     0.053 C 
ATOM      2  C2  UNK     1      -0.642  40.870 227.651  1.00  0.00     0.090 C 
ATOM      3  C3  UNK     1      -2.689  39.352 227.384  1.00  0.00     0.010 C 
ATOM      4  C4  UNK     1      -1.045  41.563 226.325  1.00  0.00     0.043 C 
ATOM      5  C5  UNK     1      -3.044  40.051 226.076  1.00  0.00     0.001 C 
ATOM      6  C6  UNK     1      -2.548  41.491 226.056  1.00  0.00     0.003 C 
ENDROOT
BRANCH   2   7
ATOM      7  O1  UNK     1      -1.303  41.577 228.713  1.00  0.00    -0.385 OA
ATOM      8  H12 UNK     1      -1.107  42.525 228.621  1.00  0.00     0.211 HD
ENDBRANCH   2   7
BRANCH   2   9
ATOM      9  C8  UNK     1       0.880  40.930 227.832  1.00  0.00    -0.021 A 
ATOM     10  C9  UNK     1       1.419  41.608 228.921  1.00  0.00     0.047 A 
ATOM     11  C13 UNK     1       2.804  41.662 229.086  1.00  0.00     0.068 A 
ATOM     12  C15 UNK     1       3.641  41.036 228.162  1.00  0.00     0.037 A 
ATOM     13  C14 UNK     1       3.094  40.358 227.072  1.00  0.00     0.003 A 
ATOM     14  C10 UNK     1       1.710  40.305 226.907  1.00  0.00     0.010 A 
BRANCH  11  15
ATOM     15  O2  UNK     1       3.338  42.323 230.150  1.00  0.00    -0.356 OA
ATOM     16  C16 UNK     1       4.759  42.313 230.274  1.00  0.00     0.210 C 
ENDBRANCH  11  15
ENDBRANCH   2   9
BRANCH   1  17
ATOM     17  C7  UNK     1      -0.909  38.695 229.014  1.00  0.00     0.279 C 
BRANCH  17  18
ATOM     18  N1  UNK     1      -1.306  37.300 228.940  1.00  0.00     0.080 N 
ATOM     19  C11 UNK     1      -1.864  36.849 230.218  1.00  0.00     0.309 C 
ATOM     20  C12 UNK     1      -0.171  36.454 228.560  1.00  0.00     0.309 C 
ENDBRANCH  17  18
ENDBRANCH   1  17
TORSDOF 5
ENDMDL
MODEL 2
REMARK VINA RESULT:      -5.7      1.290      2.043
REMARK  5 active torsions:
REMARK  status: ('A' for Active; 'I' for Inactive)
REMARK    1  A    between atoms: O1_1  and  C2_5 
REMARK    2  A    between atoms: O2_2  and  C13_16 
REMARK    3  A    between atoms: N1_3  and  C7_10 
REMARK    4  A    between atoms: C1_4  and  C7_10 
REMARK    5  A    between atoms: C2_5  and  C8_11 
ROOT
ATOM      1  C1  UNK     1      -1.177  39.394 227.655  1.00  0.00     0.053 C 
ATOM      2  C2  UNK     1      -0.636  40.857 227.599  1.00  0.00     0.090 C 
ATOM      3  C3  UNK     1      -2.694  39.347 227.384  1.00  0.00     0.010 C 
ATOM      4  C4  UNK     1      -1.052  41.532 226.268  1.00  0.00     0.043 C 
ATOM      5  C5  UNK     1      -3.064  40.028 226.070  1.00  0.00     0.001 C 
ATOM      6  C6  UNK     1      -2.560  41.464 226.021  1.00  0.00     0.003 C 
ENDROOT
BRANCH   2   7
ATOM      7  O1  UNK     1      -1.278  41.583 228.659  1.00  0.00    -0.385 OA
ATOM      8  H12 UNK     1      -2.228  41.641 228.461  1.00  0.00     0.211 HD
ENDBRANCH   2   7
BRANCH   2   9
ATOM      9  C8  UNK     1       0.889  40.911 227.758  1.00  0.00    -0.021 A 
ATOM     10  C9  UNK     1       1.671  39.863 227.280  1.00  0.00     0.047 A 
ATOM     11  C13 UNK     1       3.058  39.912 227.424  1.00  0.00     0.068 A 
ATOM     12  C15 UNK     1       3.655  41.010 228.044  1.00  0.00     0.037 A 
ATOM     13  C14 UNK     1       2.867  42.057 228.520  1.00  0.00     0.003 A 
ATOM     14  C10 UNK     1       1.481  42.007 228.377  1.00  0.00     0.010 A 
BRANCH  11  15
ATOM     15  O2  UNK     1       3.827  38.890 226.959  1.00  0.00    -0.356 OA
ATOM     16  C16 UNK     1       3.268  37.579 227.015  1.00  0.00     0.210 C 
ENDBRANCH  11  15
ENDBRANCH   2   9
BRANCH   1  17
ATOM     17  C7  UNK     1      -0.896  38.704 228.999  1.00  0.00     0.279 C 
BRANCH  17  18
ATOM     18  N1  UNK     1      -1.264  37.301 228.940  1.00  0.00     0.080 N 
ATOM     19  C11 UNK     1      -1.818  36.853 230.221  1.00  0.00     0.309 C 
ATOM     20  C12 UNK     1      -0.112  36.474 228.573  1.00  0.00     0.309 C 
ENDBRANCH  17  18
ENDBRANCH   1  17
TORSDOF 5
ENDMDL
MODEL 3
REMARK VINA RESULT:      -5.7      7.077     10.219
REMARK  5 active torsions:
REMARK  status: ('A' for Active; 'I' for Inactive)
REMARK    1  A    between atoms: O1_1  and  C2_5 
REMARK    2  A    between atoms: O2_2  and  C13_16 
REMARK    3  A    between atoms: N1_3  and  C7_10 
REMARK    4  A    between atoms: C1_4  and  C7_10 
REMARK    5  A    between atoms: C2_5  and  C8_11 
ROOT
ATOM      1  C1  UNK     1       2.517  35.033 236.192  1.00  0.00     0.053 C 
ATOM      2  C2  UNK     1       1.681  36.318 235.898  1.00  0.00     0.090 C 
ATOM      3  C3  UNK     1       3.993  35.377 236.475  1.00  0.00     0.010 C 
ATOM      4  C4  UNK     1       1.873  37.354 237.034  1.00  0.00     0.043 C 
ATOM      5  C5  UNK     1       4.139  36.405 237.592  1.00  0.00     0.001 C 
ATOM      6  C6  UNK     1       3.346  37.671 237.298  1.00  0.00     0.003 C 
ENDROOT
BRANCH   2   7
ATOM      7  O1  UNK     1       2.216  36.902 234.700  1.00  0.00    -0.385 OA
ATOM      8  H12 UNK     1       2.876  37.571 234.952  1.00  0.00     0.211 HD
ENDBRANCH   2   7
BRANCH   2   9
ATOM      9  C8  UNK     1       0.190  36.005 235.723  1.00  0.00    -0.021 A 
ATOM     10  C9  UNK     1      -0.421  36.218 234.491  1.00  0.00     0.047 A 
ATOM     11  C13 UNK     1      -1.777  35.932 234.331  1.00  0.00     0.068 A 
ATOM     12  C15 UNK     1      -2.515  35.433 235.404  1.00  0.00     0.037 A 
ATOM     13  C14 UNK     1      -1.898  35.221 236.637  1.00  0.00     0.003 A 
ATOM     14  C10 UNK     1      -0.542  35.508 236.796  1.00  0.00     0.010 A 
BRANCH  11  15
ATOM     15  O2  UNK     1      -2.379  36.139 233.127  1.00  0.00    -0.356 OA
ATOM     16  C16 UNK     1      -1.592  36.745 232.104  1.00  0.00     0.210 C 
ENDBRANCH  11  15
ENDBRANCH   2   9
BRANCH   1  17
ATOM     17  C7  UNK     1       2.461  34.009 235.048  1.00  0.00     0.279 C 
BRANCH  17  18
ATOM     18  N1  UNK     1       2.074  32.703 235.550  1.00  0.00     0.080 N 
ATOM     19  C11 UNK     1       2.995  31.668 235.073  1.00  0.00     0.309 C 
ATOM     20  C12 UNK     1       0.701  32.377 235.155  1.00  0.00     0.309 C 
ENDBRANCH  17  18
ENDBRANCH   1  17
TORSDOF 5
ENDMDL
MODEL 4
REMARK VINA RESULT:      -5.5      9.798     11.812
REMARK  5 active torsions:
REMARK  status: ('A' for Active; 'I' for Inactive)
REMARK    1  A    between atoms: O1_1  and  C2_5 
REMARK    2  A    between atoms: O2_2  and  C13_16 
REMARK    3  A    between atoms: N1_3  and  C7_10 
REMARK    4  A    between atoms: C1_4  and  C7_10 
REMARK    5  A    between atoms: C2_5  and  C8_11 
ROOT
ATOM      1  C1  UNK     1       1.593  35.155 236.829  1.00  0.00     0.053 C 
ATOM      2  C2  UNK     1       3.011  34.912 237.435  1.00  0.00     0.090 C 
ATOM      3  C3  UNK     1       1.076  36.568 237.162  1.00  0.00     0.010 C 
ATOM      4  C4  UNK     1       3.977  36.045 237.010  1.00  0.00     0.043 C 
ATOM      5  C5  UNK     1       2.058  37.654 236.736  1.00  0.00     0.001 C 
ATOM      6  C6  UNK     1       3.436  37.436 237.346  1.00  0.00     0.003 C 
ENDROOT
BRANCH   2   7
ATOM      7  O1  UNK     1       2.875  34.987 238.864  1.00  0.00    -0.385 OA
ATOM      8  H12 UNK     1       3.424  34.289 239.262  1.00  0.00     0.211 HD
ENDBRANCH   2   7
BRANCH   2   9
ATOM      9  C8  UNK     1       3.586  33.551 237.022  1.00  0.00    -0.021 A 
ATOM     10  C9  UNK     1       4.295  32.791 237.948  1.00  0.00     0.047 A 
ATOM     11  C13 UNK     1       4.817  31.553 237.571  1.00  0.00     0.068 A 
ATOM     12  C15 UNK     1       4.627  31.082 236.273  1.00  0.00     0.037 A 
ATOM     13  C14 UNK     1       3.916  31.848 235.349  1.00  0.00     0.003 A 
ATOM     14  C10 UNK     1       3.395  33.086 235.725  1.00  0.00     0.010 A 
BRANCH  11  15
ATOM     15  O2  UNK     1       5.511  30.805 238.473  1.00  0.00    -0.356 OA
ATOM     16  C16 UNK     1       6.393  31.500 239.352  1.00  0.00     0.210 C 
ENDBRANCH  11  15
ENDBRANCH   2   9
BRANCH   1  17
ATOM     17  C7  UNK     1       0.556  34.126 237.305  1.00  0.00     0.279 C 
BRANCH  17  18
ATOM     18  N1  UNK     1      -0.758  34.443 236.774  1.00  0.00     0.080 N 
ATOM     19  C11 UNK     1      -1.813  33.923 237.649  1.00  0.00     0.309 C 
ATOM     20  C12 UNK     1      -0.918  33.907 235.420  1.00  0.00     0.309 C 
ENDBRANCH  17  18
ENDBRANCH   1  17
TORSDOF 5
ENDMDL
MODEL 5
REMARK VINA RESULT:      -5.4      8.199     10.674
REMARK  5 active torsions:
REMARK  status: ('A' for Active; 'I' for Inactive)
REMARK    1  A    between atoms: O1_1  and  C2_5 
REMARK    2  A    between atoms: O2_2  and  C13_16 
REMARK    3  A    between atoms: N1_3  and  C7_10 
REMARK    4  A    between atoms: C1_4  and  C7_10 
REMARK    5  A    between atoms: C2_5  and  C8_11 
ROOT
ATOM      1  C1  UNK     1       2.532  35.035 236.204  1.00  0.00     0.053 C 
ATOM      2  C2  UNK     1       1.682  36.316 235.930  1.00  0.00     0.090 C 
ATOM      3  C3  UNK     1       4.005  35.390 236.491  1.00  0.00     0.010 C 
ATOM      4  C4  UNK     1       1.865  37.337 237.080  1.00  0.00     0.043 C 
ATOM      5  C5  UNK     1       4.141  36.403 237.623  1.00  0.00     0.001 C 
ATOM      6  C6  UNK     1       3.335  37.665 237.348  1.00  0.00     0.003 C 
ENDROOT
BRANCH   2   7
ATOM      7  O1  UNK     1       2.210  36.923 234.740  1.00  0.00    -0.385 OA
ATOM      8  H12 UNK     1       2.755  37.686 234.999  1.00  0.00     0.211 HD
ENDBRANCH   2   7
BRANCH   2   9
ATOM      9  C8  UNK     1       0.194  35.990 235.751  1.00  0.00    -0.021 A 
ATOM     10  C9  UNK     1      -0.524  35.438 236.808  1.00  0.00     0.047 A 
ATOM     11  C13 UNK     1      -1.877  35.142 236.646  1.00  0.00     0.068 A 
ATOM     12  C15 UNK     1      -2.506  35.401 235.428  1.00  0.00     0.037 A 
ATOM     13  C14 UNK     1      -1.782  35.954 234.373  1.00  0.00     0.003 A 
ATOM     14  C10 UNK     1      -0.429  36.249 234.535  1.00  0.00     0.010 A 
BRANCH  11  15
ATOM     15  O2  UNK     1      -2.585  34.603 237.677  1.00  0.00    -0.356 OA
ATOM     16  C16 UNK     1      -2.130  33.352 238.191  1.00  0.00     0.210 C 
ENDBRANCH  11  15
ENDBRANCH   2   9
BRANCH   1  17
ATOM     17  C7  UNK     1       2.485  34.028 235.046  1.00  0.00     0.279 C 
BRANCH  17  18
ATOM     18  N1  UNK     1       1.979  32.746 235.503  1.00  0.00     0.080 N 
ATOM     19  C11 UNK     1       0.680  32.450 234.895  1.00  0.00     0.309 C 
ATOM     20  C12 UNK     1       1.868  32.720 236.965  1.00  0.00     0.309 C 
ENDBRANCH  17  18
ENDBRANCH   1  17
TORSDOF 5
ENDMDL
MODEL 6
REMARK VINA RESULT:      -5.4      7.032      9.842
REMARK  5 active torsions:
REMARK  status: ('A' for Active; 'I' for Inactive)
REMARK    1  A    between atoms: O1_1  and  C2_5 
REMARK    2  A    between atoms: O2_2  and  C13_16 
REMARK    3  A    between atoms: N1_3  and  C7_10 
REMARK    4  A    between atoms: C1_4  and  C7_10 
REMARK    5  A    between atoms: C2_5  and  C8_11 
ROOT
ATOM      1  C1  UNK     1       2.432  35.502 236.275  1.00  0.00     0.053 C 
ATOM      2  C2  UNK     1       1.553  35.981 235.077  1.00  0.00     0.090 C 
ATOM      3  C3  UNK     1       2.840  36.684 237.177  1.00  0.00     0.010 C 
ATOM      4  C4  UNK     1       0.353  36.815 235.592  1.00  0.00     0.043 C 
ATOM      5  C5  UNK     1       1.633  37.484 237.656  1.00  0.00     0.001 C 
ATOM      6  C6  UNK     1       0.786  37.975 236.490  1.00  0.00     0.003 C 
ENDROOT
BRANCH   2   7
ATOM      7  O1  UNK     1       2.367  36.859 234.283  1.00  0.00    -0.385 OA
ATOM      8  H12 UNK     1       2.869  37.438 234.881  1.00  0.00     0.211 HD
ENDBRANCH   2   7
BRANCH   2   9
ATOM      9  C8  UNK     1       1.048  34.806 234.231  1.00  0.00    -0.021 A 
ATOM     10  C9  UNK     1       1.290  34.787 232.860  1.00  0.00     0.047 A 
ATOM     11  C13 UNK     1       0.831  33.717 232.091  1.00  0.00     0.068 A 
ATOM     12  C15 UNK     1       0.134  32.672 232.696  1.00  0.00     0.037 A 
ATOM     13  C14 UNK     1      -0.106  32.695 234.070  1.00  0.00     0.003 A 
ATOM     14  C10 UNK     1       0.352  33.765 234.839  1.00  0.00     0.010 A 
BRANCH  11  15
ATOM     15  O2  UNK     1       1.065  33.693 230.750  1.00  0.00    -0.356 OA
ATOM     16  C16 UNK     1       1.446  34.923 230.136  1.00  0.00     0.210 C 
ENDBRANCH  11  15
ENDBRANCH   2   9
BRANCH   1  17
ATOM     17  C7  UNK     1       3.703  34.765 235.825  1.00  0.00     0.279 C 
BRANCH  17  18
ATOM     18  N1  UNK     1       3.803  33.474 236.482  1.00  0.00     0.080 N 
ATOM     19  C11 UNK     1       3.662  32.383 235.513  1.00  0.00     0.309 C 
ATOM     20  C12 UNK     1       2.792  33.344 237.535  1.00  0.00     0.309 C 
ENDBRANCH  17  18
ENDBRANCH   1  17
TORSDOF 5
ENDMDL
MODEL 7
REMARK VINA RESULT:      -5.3      7.170     10.091
REMARK  5 active torsions:
REMARK  status: ('A' for Active; 'I' for Inactive)
REMARK    1  A    between atoms: O1_1  and  C2_5 
REMARK    2  A    between atoms: O2_2  and  C13_16 
REMARK    3  A    between atoms: N1_3  and  C7_10 
REMARK    4  A    between atoms: C1_4  and  C7_10 
REMARK    5  A    between atoms: C2_5  and  C8_11 
ROOT
ATOM      1  C1  UNK     1       1.618  36.470 236.516  1.00  0.00     0.053 C 
ATOM      2  C2  UNK     1       2.381  35.130 236.273  1.00  0.00     0.090 C 
ATOM      3  C3  UNK     1       2.221  37.251 237.700  1.00  0.00     0.010 C 
ATOM      4  C4  UNK     1       3.900  35.396 236.134  1.00  0.00     0.043 C 
ATOM      5  C5  UNK     1       3.719  37.485 237.530  1.00  0.00     0.001 C 
ATOM      6  C6  UNK     1       4.470  36.178 237.319  1.00  0.00     0.003 C 
ENDROOT
BRANCH   2   7
ATOM      7  O1  UNK     1       2.199  34.324 237.448  1.00  0.00    -0.385 OA
ATOM      8  H12 UNK     1       2.449  34.852 238.225  1.00  0.00     0.211 HD
ENDBRANCH   2   7
BRANCH   2   9
ATOM      9  C8  UNK     1       1.863  34.393 235.031  1.00  0.00    -0.021 A 
ATOM     10  C9  UNK     1       1.561  35.111 233.877  1.00  0.00     0.047 A 
ATOM     11  C13 UNK     1       1.091  34.441 232.748  1.00  0.00     0.068 A 
ATOM     12  C15 UNK     1       0.928  33.056 232.777  1.00  0.00     0.037 A 
ATOM     13  C14 UNK     1       1.233  32.341 233.935  1.00  0.00     0.003 A 
ATOM     14  C10 UNK     1       1.702  33.012 235.065  1.00  0.00     0.010 A 
BRANCH  11  15
ATOM     15  O2  UNK     1       0.794  35.138 231.617  1.00  0.00    -0.356 OA
ATOM     16  C16 UNK     1      -0.562  35.544 231.442  1.00  0.00     0.210 C 
ENDBRANCH  11  15
ENDBRANCH   2   9
BRANCH   1  17
ATOM     17  C7  UNK     1       0.118  36.264 236.775  1.00  0.00     0.279 C 
BRANCH  17  18
ATOM     18  N1  UNK     1      -0.672  37.146 235.933  1.00  0.00     0.080 N 
ATOM     19  C11 UNK     1      -1.282  38.216 236.727  1.00  0.00     0.309 C 
ATOM     20  C12 UNK     1      -1.708  36.395 235.218  1.00  0.00     0.309 C 
ENDBRANCH  17  18
ENDBRANCH   1  17
TORSDOF 5
ENDMDL
MODEL 8
REMARK VINA RESULT:      -5.3      7.212      8.948
REMARK  5 active torsions:
REMARK  status: ('A' for Active; 'I' for Inactive)
REMARK    1  A    between atoms: O1_1  and  C2_5 
REMARK    2  A    between atoms: O2_2  and  C13_16 
REMARK    3  A    between atoms: N1_3  and  C7_10 
REMARK    4  A    between atoms: C1_4  and  C7_10 
REMARK    5  A    between atoms: C2_5  and  C8_11 
ROOT
ATOM      1  C1  UNK     1      -0.086  34.359 234.296  1.00  0.00     0.053 C 
ATOM      2  C2  UNK     1       0.562  35.756 234.042  1.00  0.00     0.090 C 
ATOM      3  C3  UNK     1      -0.572  33.719 232.980  1.00  0.00     0.010 C 
ATOM      4  C4  UNK     1       1.664  35.647 232.958  1.00  0.00     0.043 C 
ATOM      5  C5  UNK     1       0.538  33.638 231.937  1.00  0.00     0.001 C 
ATOM      6  C6  UNK     1       1.156  35.002 231.667  1.00  0.00     0.003 C 
ENDROOT
BRANCH   2   7
ATOM      7  O1  UNK     1      -0.467  36.607 233.513  1.00  0.00    -0.385 OA
ATOM      8  H12 UNK     1      -0.883  37.082 234.253  1.00  0.00     0.211 HD
ENDBRANCH   2   7
BRANCH   2   9
ATOM      9  C8  UNK     1       1.149  36.357 235.325  1.00  0.00    -0.021 A 
ATOM     10  C9  UNK     1       2.460  36.063 235.689  1.00  0.00     0.047 A 
ATOM     11  C13 UNK     1       2.994  36.611 236.856  1.00  0.00     0.068 A 
ATOM     12  C15 UNK     1       2.215  37.451 237.651  1.00  0.00     0.037 A 
ATOM     13  C14 UNK     1       0.903  37.743 237.281  1.00  0.00     0.003 A 
ATOM     14  C10 UNK     1       0.369  37.195 236.115  1.00  0.00     0.010 A 
BRANCH  11  15
ATOM     15  O2  UNK     1       4.276  36.326 237.217  1.00  0.00    -0.356 OA
ATOM     16  C16 UNK     1       4.767  36.943 238.405  1.00  0.00     0.210 C 
ENDBRANCH  11  15
ENDBRANCH   2   9
BRANCH   1  17
ATOM     17  C7  UNK     1      -1.265  34.417 235.279  1.00  0.00     0.279 C 
BRANCH  17  18
ATOM     18  N1  UNK     1      -1.165  33.352 236.260  1.00  0.00     0.080 N 
ATOM     19  C11 UNK     1      -1.827  33.732 237.511  1.00  0.00     0.309 C 
ATOM     20  C12 UNK     1       0.237  33.008 236.517  1.00  0.00     0.309 C 
ENDBRANCH  17  18
ENDBRANCH   1  17
TORSDOF 5
ENDMDL
MODEL 9
REMARK VINA RESULT:      -5.3      8.479     11.103
REMARK  5 active torsions:
REMARK  status: ('A' for Active; 'I' for Inactive)
REMARK    1  A    between atoms: O1_1  and  C2_5 
REMARK    2  A    between atoms: O2_2  and  C13_16 
REMARK    3  A    between atoms: N1_3  and  C7_10 
REMARK    4  A    between atoms: C1_4  and  C7_10 
REMARK    5  A    between atoms: C2_5  and  C8_11 
ROOT
ATOM      1  C1  UNK     1       2.864  34.944 237.742  1.00  0.00     0.053 C 
ATOM      2  C2  UNK     1       3.059  36.029 236.637  1.00  0.00     0.090 C 
ATOM      3  C3  UNK     1       3.970  35.031 238.814  1.00  0.00     0.010 C 
ATOM      4  C4  UNK     1       3.195  37.432 237.280  1.00  0.00     0.043 C 
ATOM      5  C5  UNK     1       4.077  36.428 239.416  1.00  0.00     0.001 C 
ATOM      6  C6  UNK     1       4.293  37.487 238.344  1.00  0.00     0.003 C 
ENDROOT
BRANCH   2   7
ATOM      7  O1  UNK     1       4.305  35.743 235.982  1.00  0.00    -0.385 OA
ATOM      8  H12 UNK     1       5.029  36.077 236.540  1.00  0.00     0.211 HD
ENDBRANCH   2   7
BRANCH   2   9
ATOM      9  C8  UNK     1       1.907  36.028 235.623  1.00  0.00    -0.021 A 
ATOM     10  C9  UNK     1       0.598  36.189 236.065  1.00  0.00     0.047 A 
ATOM     11  C13 UNK     1      -0.449  36.189 235.143  1.00  0.00     0.068 A 
ATOM     12  C15 UNK     1      -0.181  36.029 233.784  1.00  0.00     0.037 A 
ATOM     13  C14 UNK     1       1.134  35.868 233.346  1.00  0.00     0.003 A 
ATOM     14  C10 UNK     1       2.180  35.867 234.269  1.00  0.00     0.010 A 
BRANCH  11  15
ATOM     15  O2  UNK     1      -1.733  36.347 235.570  1.00  0.00    -0.356 OA
ATOM     16  C16 UNK     1      -2.153  35.545 236.673  1.00  0.00     0.210 C 
ENDBRANCH  11  15
ENDBRANCH   2   9
BRANCH   1  17
ATOM     17  C7  UNK     1       2.836  33.516 237.179  1.00  0.00     0.279 C 
BRANCH  17  18
ATOM     18  N1  UNK     1       3.606  32.619 238.022  1.00  0.00     0.080 N 
ATOM     19  C11 UNK     1       4.620  31.908 237.238  1.00  0.00     0.309 C 
ATOM     20  C12 UNK     1       2.730  31.659 238.700  1.00  0.00     0.309 C 
ENDBRANCH  17  18
ENDBRANCH   1  17
TORSDOF 5
ENDMDL
