MODEL 1
REMARK VINA RESULT:      -6.1      0.000      0.000
REMARK  2 active torsions:
REMARK  status: ('A' for Active; 'I' for Inactive)
REMARK    1  A    between atoms: C1_4  and  C3_6 
REMARK    2  A    between atoms: C1_4  and  C4_7 
ROOT
ATOM      1  O1  UNK     1       2.918  34.237 239.617  1.00  0.00    -0.272 OA
ATOM      2  O2  UNK     1       3.730  32.303 235.528  1.00  0.00    -0.273 OA
ATOM      3  N1  UNK     1       3.340  33.324 237.555  1.00  0.00    -0.297 N 
ATOM      4  C1  UNK     1       3.088  35.790 237.754  1.00  0.00     0.068 C 
ATOM      5  C2  UNK     1       4.072  35.764 236.562  1.00  0.00     0.033 C 
ATOM      6  C5  UNK     1       3.690  34.694 235.551  1.00  0.00     0.105 C 
ATOM      7  C6  UNK     1       3.122  34.401 238.413  1.00  0.00     0.237 C 
ATOM      8  C7  UNK     1       3.608  33.332 236.191  1.00  0.00     0.224 C 
ATOM      9  H7  UNK     1       3.305  32.405 237.990  1.00  0.00     0.171 HD
ENDROOT
BRANCH   4  10
ATOM     10  C3  UNK     1       3.611  36.805 238.797  1.00  0.00     0.020 C 
ATOM     11  C8  UNK     1       5.124  36.872 238.785  1.00  0.00     0.006 C 
ENDBRANCH   4  10
BRANCH   4  12
ATOM     12  C4  UNK     1       1.671  36.213 237.327  1.00  0.00    -0.040 A 
ATOM     13  C9  UNK     1       1.359  37.565 237.217  1.00  0.00     0.008 A 
ATOM     14  C11 UNK     1       0.075  37.948 236.831  1.00  0.00     0.001 A 
ATOM     15  C13 UNK     1      -0.891  36.980 236.558  1.00  0.00     0.000 A 
ATOM     16  C12 UNK     1      -0.572  35.627 236.670  1.00  0.00     0.001 A 
ATOM     17  C10 UNK     1       0.713  35.243 237.056  1.00  0.00     0.008 A 
ENDBRANCH   4  12
TORSDOF 2
ENDMDL
MODEL 2
REMARK VINA RESULT:      -5.6      2.225      4.868
REMARK  2 active torsions:
REMARK  status: ('A' for Active; 'I' for Inactive)
REMARK    1  A    between atoms: C1_4  and  C3_6 
REMARK    2  A    between atoms: C1_4  and  C4_7 
ROOT
ATOM      1  O1  UNK     1       2.830  33.833 239.895  1.00  0.00    -0.272 OA
ATOM      2  O2  UNK     1       4.993  37.092 237.483  1.00  0.00    -0.273 OA
ATOM      3  N1  UNK     1       3.874  35.449 238.646  1.00  0.00    -0.297 N 
ATOM      4  C1  UNK     1       2.466  33.754 237.492  1.00  0.00     0.068 C 
ATOM      5  C2  UNK     1       2.248  34.927 236.510  1.00  0.00     0.033 C 
ATOM      6  C5  UNK     1       3.550  35.660 236.224  1.00  0.00     0.105 C 
ATOM      7  C6  UNK     1       3.042  34.340 238.792  1.00  0.00     0.237 C 
ATOM      8  C7  UNK     1       4.197  36.153 237.492  1.00  0.00     0.224 C 
ATOM      9  H7  UNK     1       4.295  35.795 239.504  1.00  0.00     0.171 HD
ENDROOT
BRANCH   4  10
ATOM     10  C3  UNK     1       1.088  33.143 237.837  1.00  0.00     0.020 C 
ATOM     11  C8  UNK     1      -0.038  33.961 237.239  1.00  0.00     0.006 C 
ENDBRANCH   4  10
BRANCH   4  12
ATOM     12  C4  UNK     1       3.354  32.650 236.890  1.00  0.00    -0.040 A 
ATOM     13  C9  UNK     1       3.099  32.186 235.604  1.00  0.00     0.008 A 
ATOM     14  C11 UNK     1       3.903  31.185 235.058  1.00  0.00     0.001 A 
ATOM     15  C13 UNK     1       4.957  30.654 235.801  1.00  0.00     0.000 A 
ATOM     16  C12 UNK     1       5.207  31.124 237.090  1.00  0.00     0.001 A 
ATOM     17  C10 UNK     1       4.402  32.125 237.637  1.00  0.00     0.008 A 
ENDBRANCH   4  12
TORSDOF 2
ENDMDL
MODEL 3
REMARK VINA RESULT:      -5.5      3.245      4.877
REMARK  2 active torsions:
REMARK  status: ('A' for Active; 'I' for Inactive)
REMARK    1  A    between atoms: C1_4  and  C3_6 
REMARK    2  A    between atoms: C1_4  and  C4_7 
ROOT
ATOM      1  O1  UNK     1       2.089  36.977 234.185  1.00  0.00    -0.272 OA
ATOM      2  O2  UNK     1      -1.908  36.291 236.347  1.00  0.00    -0.273 OA
ATOM      3  N1  UNK     1       0.121  36.598 235.300  1.00  0.00    -0.297 N 
ATOM      4  C1  UNK     1       2.007  35.005 235.606  1.00  0.00     0.068 C 
ATOM      5  C2  UNK     1       1.356  34.845 236.998  1.00  0.00     0.033 C 
ATOM      6  C5  UNK     1      -0.159  34.755 236.895  1.00  0.00     0.105 C 
ATOM      7  C6  UNK     1       1.440  36.288 234.974  1.00  0.00     0.237 C 
ATOM      8  C7  UNK     1      -0.737  35.950 236.182  1.00  0.00     0.224 C 
ATOM      9  H7  UNK     1      -0.263  37.416 234.836  1.00  0.00     0.171 HD
ENDROOT
BRANCH   4  10
ATOM     10  C3  UNK     1       3.526  35.221 235.798  1.00  0.00     0.020 C 
ATOM     11  C8  UNK     1       3.820  35.887 237.127  1.00  0.00     0.006 C 
ENDBRANCH   4  10
BRANCH   4  12
ATOM     12  C4  UNK     1       1.798  33.763 234.721  1.00  0.00    -0.040 A 
ATOM     13  C9  UNK     1       1.073  33.873 233.539  1.00  0.00     0.008 A 
ATOM     14  C11 UNK     1       0.883  32.747 232.737  1.00  0.00     0.001 A 
ATOM     15  C13 UNK     1       1.419  31.518 233.121  1.00  0.00     0.000 A 
ATOM     16  C12 UNK     1       2.146  31.415 234.307  1.00  0.00     0.001 A 
ATOM     17  C10 UNK     1       2.335  32.541 235.110  1.00  0.00     0.008 A 
ENDBRANCH   4  12
TORSDOF 2
ENDMDL
MODEL 4
REMARK VINA RESULT:      -5.5      2.392      4.032
REMARK  2 active torsions:
REMARK  status: ('A' for Active; 'I' for Inactive)
REMARK    1  A    between atoms: C1_4  and  C3_6 
REMARK    2  A    between atoms: C1_4  and  C4_7 
ROOT
ATOM      1  O1  UNK     1       1.981  36.403 233.781  1.00  0.00    -0.272 OA
ATOM      2  O2  UNK     1       3.722  37.806 237.796  1.00  0.00    -0.273 OA
ATOM      3  N1  UNK     1       2.846  37.048 235.805  1.00  0.00    -0.297 N 
ATOM      4  C1  UNK     1       1.639  34.880 235.645  1.00  0.00     0.068 C 
ATOM      5  C2  UNK     1       2.622  34.502 236.777  1.00  0.00     0.033 C 
ATOM      6  C5  UNK     1       2.749  35.622 237.799  1.00  0.00     0.105 C 
ATOM      7  C6  UNK     1       2.175  36.154 234.972  1.00  0.00     0.237 C 
ATOM      8  C7  UNK     1       3.169  36.916 237.151  1.00  0.00     0.224 C 
ATOM      9  H7  UNK     1       3.149  37.913 235.365  1.00  0.00     0.171 HD
ENDROOT
BRANCH   4  10
ATOM     10  C3  UNK     1       1.661  33.756 234.583  1.00  0.00     0.020 C 
ATOM     11  C8  UNK     1       2.520  32.593 235.035  1.00  0.00     0.006 C 
ENDBRANCH   4  10
BRANCH   4  12
ATOM     12  C4  UNK     1       0.196  35.039 236.159  1.00  0.00    -0.040 A 
ATOM     13  C9  UNK     1      -0.416  33.985 236.831  1.00  0.00     0.008 A 
ATOM     14  C11 UNK     1      -1.723  34.129 237.296  1.00  0.00     0.001 A 
ATOM     15  C13 UNK     1      -2.411  35.324 237.087  1.00  0.00     0.000 A 
ATOM     16  C12 UNK     1      -1.792  36.376 236.413  1.00  0.00     0.001 A 
ATOM     17  C10 UNK     1      -0.484  36.232 235.947  1.00  0.00     0.008 A 
ENDBRANCH   4  12
TORSDOF 2
ENDMDL
MODEL 5
REMARK VINA RESULT:      -5.5      2.759      3.693
REMARK  2 active torsions:
REMARK  status: ('A' for Active; 'I' for Inactive)
REMARK    1  A    between atoms: C1_4  and  C3_6 
REMARK    2  A    between atoms: C1_4  and  C4_7 
ROOT
ATOM      1  O1  UNK     1      -0.277  34.393 237.299  1.00  0.00    -0.272 OA
ATOM      2  O2  UNK     1       4.141  33.175 237.650  1.00  0.00    -0.273 OA
ATOM      3  N1  UNK     1       1.942  33.833 237.445  1.00  0.00    -0.297 N 
ATOM      4  C1  UNK     1       1.234  35.533 235.773  1.00  0.00     0.068 C 
ATOM      5  C2  UNK     1       2.657  36.072 236.046  1.00  0.00     0.033 C 
ATOM      6  C5  UNK     1       3.675  34.944 236.110  1.00  0.00     0.105 C 
ATOM      7  C6  UNK     1       0.881  34.562 236.912  1.00  0.00     0.237 C 
ATOM      8  C7  UNK     1       3.297  33.916 237.144  1.00  0.00     0.224 C 
ATOM      9  H7  UNK     1       1.692  33.154 238.158  1.00  0.00     0.171 HD
ENDROOT
BRANCH   4  10
ATOM     10  C3  UNK     1       0.239  36.714 235.853  1.00  0.00     0.020 C 
ATOM     11  C8  UNK     1       0.687  37.738 236.876  1.00  0.00     0.006 C 
ENDBRANCH   4  10
BRANCH   4  12
ATOM     12  C4  UNK     1       1.116  34.887 234.380  1.00  0.00    -0.040 A 
ATOM     13  C9  UNK     1       1.344  35.656 233.243  1.00  0.00     0.008 A 
ATOM     14  C11 UNK     1       1.237  35.071 231.981  1.00  0.00     0.001 A 
ATOM     15  C13 UNK     1       0.901  33.723 231.863  1.00  0.00     0.000 A 
ATOM     16  C12 UNK     1       0.674  32.958 233.007  1.00  0.00     0.001 A 
ATOM     17  C10 UNK     1       0.781  33.543 234.269  1.00  0.00     0.008 A 
ENDBRANCH   4  12
TORSDOF 2
ENDMDL
MODEL 6
REMARK VINA RESULT:      -5.3      2.382      5.040
REMARK  2 active torsions:
REMARK  status: ('A' for Active; 'I' for Inactive)
REMARK    1  A    between atoms: C1_4  and  C3_6 
REMARK    2  A    between atoms: C1_4  and  C4_7 
ROOT
ATOM      1  O1  UNK     1       0.719  33.804 237.752  1.00  0.00    -0.272 OA
ATOM      2  O2  UNK     1       4.005  36.841 238.802  1.00  0.00    -0.273 OA
ATOM      3  N1  UNK     1       2.376  35.319 238.220  1.00  0.00    -0.297 N 
ATOM      4  C1  UNK     1       2.519  33.984 236.127  1.00  0.00     0.068 C 
ATOM      5  C2  UNK     1       3.247  35.253 235.628  1.00  0.00     0.033 C 
ATOM      6  C5  UNK     1       4.222  35.778 236.671  1.00  0.00     0.105 C 
ATOM      7  C6  UNK     1       1.768  34.357 237.416  1.00  0.00     0.237 C 
ATOM      8  C7  UNK     1       3.535  36.050 237.983  1.00  0.00     0.224 C 
ATOM      9  H7  UNK     1       1.903  35.519 239.097  1.00  0.00     0.171 HD
ENDROOT
BRANCH   4  10
ATOM     10  C3  UNK     1       1.456  33.585 235.076  1.00  0.00     0.020 C 
ATOM     11  C8  UNK     1       1.310  34.655 234.013  1.00  0.00     0.006 C 
ENDBRANCH   4  10
BRANCH   4  12
ATOM     12  C4  UNK     1       3.483  32.799 236.319  1.00  0.00    -0.040 A 
ATOM     13  C9  UNK     1       4.103  32.608 237.550  1.00  0.00     0.008 A 
ATOM     14  C11 UNK     1       4.977  31.536 237.725  1.00  0.00     0.001 A 
ATOM     15  C13 UNK     1       5.227  30.659 236.669  1.00  0.00     0.000 A 
ATOM     16  C12 UNK     1       4.602  30.856 235.438  1.00  0.00     0.001 A 
ATOM     17  C10 UNK     1       3.728  31.929 235.263  1.00  0.00     0.008 A 
ENDBRANCH   4  12
TORSDOF 2
ENDMDL
MODEL 7
REMARK VINA RESULT:      -5.3      2.574      4.389
REMARK  2 active torsions:
REMARK  status: ('A' for Active; 'I' for Inactive)
REMARK    1  A    between atoms: C1_4  and  C3_6 
REMARK    2  A    between atoms: C1_4  and  C4_7 
ROOT
ATOM      1  O1  UNK     1       1.355  33.775 237.663  1.00  0.00    -0.272 OA
ATOM      2  O2  UNK     1       3.639  37.756 237.419  1.00  0.00    -0.273 OA
ATOM      3  N1  UNK     1       2.445  35.788 237.527  1.00  0.00    -0.297 N 
ATOM      4  C1  UNK     1       0.214  35.549 236.454  1.00  0.00     0.068 C 
ATOM      5  C2  UNK     1       0.134  37.054 236.796  1.00  0.00     0.033 C 
ATOM      6  C5  UNK     1       1.440  37.766 236.479  1.00  0.00     0.105 C 
ATOM      7  C6  UNK     1       1.361  34.947 237.281  1.00  0.00     0.237 C 
ATOM      8  C7  UNK     1       2.604  37.129 237.192  1.00  0.00     0.224 C 
ATOM      9  H7  UNK     1       3.223  35.366 238.026  1.00  0.00     0.171 HD
ENDROOT
BRANCH   4  10
ATOM     10  C3  UNK     1      -1.094  34.870 236.921  1.00  0.00     0.020 C 
ATOM     11  C8  UNK     1      -2.247  35.853 236.931  1.00  0.00     0.006 C 
ENDBRANCH   4  10
BRANCH   4  12
ATOM     12  C4  UNK     1       0.378  35.306 234.942  1.00  0.00    -0.040 A 
ATOM     13  C9  UNK     1       1.223  34.296 234.494  1.00  0.00     0.008 A 
ATOM     14  C11 UNK     1       1.371  34.076 233.125  1.00  0.00     0.001 A 
ATOM     15  C13 UNK     1       0.674  34.865 232.211  1.00  0.00     0.000 A 
ATOM     16  C12 UNK     1      -0.172  35.876 232.667  1.00  0.00     0.001 A 
ATOM     17  C10 UNK     1      -0.320  36.097 234.037  1.00  0.00     0.008 A 
ENDBRANCH   4  12
TORSDOF 2
ENDMDL
MODEL 8
REMARK VINA RESULT:      -5.3      3.183      4.597
REMARK  2 active torsions:
REMARK  status: ('A' for Active; 'I' for Inactive)
REMARK    1  A    between atoms: C1_4  and  C3_6 
REMARK    2  A    between atoms: C1_4  and  C4_7 
ROOT
ATOM      1  O1  UNK     1      -0.997  34.058 236.491  1.00  0.00    -0.272 OA
ATOM      2  O2  UNK     1      -1.117  36.705 232.735  1.00  0.00    -0.273 OA
ATOM      3  N1  UNK     1      -1.005  35.358 234.601  1.00  0.00    -0.297 N 
ATOM      4  C1  UNK     1       1.142  34.372 235.378  1.00  0.00     0.068 C 
ATOM      5  C2  UNK     1       1.447  34.399 233.863  1.00  0.00     0.033 C 
ATOM      6  C5  UNK     1       0.999  35.707 233.229  1.00  0.00     0.105 C 
ATOM      7  C6  UNK     1      -0.376  34.551 235.547  1.00  0.00     0.237 C 
ATOM      8  C7  UNK     1      -0.465  35.966 233.473  1.00  0.00     0.224 C 
ATOM      9  H7  UNK     1      -1.998  35.516 234.751  1.00  0.00     0.171 HD
ENDROOT
BRANCH   4  10
ATOM     10  C3  UNK     1       1.502  32.971 235.925  1.00  0.00     0.020 C 
ATOM     11  C8  UNK     1       2.126  32.108 234.847  1.00  0.00     0.006 C 
ENDBRANCH   4  10
BRANCH   4  12
ATOM     12  C4  UNK     1       1.957  35.423 236.153  1.00  0.00    -0.040 A 
ATOM     13  C9  UNK     1       3.342  35.313 236.215  1.00  0.00     0.008 A 
ATOM     14  C11 UNK     1       4.080  36.265 236.918  1.00  0.00     0.001 A 
ATOM     15  C13 UNK     1       3.431  37.322 237.554  1.00  0.00     0.000 A 
ATOM     16  C12 UNK     1       2.042  37.428 237.487  1.00  0.00     0.001 A 
ATOM     17  C10 UNK     1       1.302  36.475 236.785  1.00  0.00     0.008 A 
ENDBRANCH   4  12
TORSDOF 2
ENDMDL
MODEL 9
REMARK VINA RESULT:      -5.2      3.456      5.157
REMARK  2 active torsions:
REMARK  status: ('A' for Active; 'I' for Inactive)
REMARK    1  A    between atoms: C1_4  and  C3_6 
REMARK    2  A    between atoms: C1_4  and  C4_7 
ROOT
ATOM      1  O1  UNK     1       1.996  36.871 234.112  1.00  0.00    -0.272 OA
ATOM      2  O2  UNK     1      -2.373  36.307 232.802  1.00  0.00    -0.273 OA
ATOM      3  N1  UNK     1      -0.199  36.580 233.514  1.00  0.00    -0.297 N 
ATOM      4  C1  UNK     1       0.560  35.779 235.743  1.00  0.00     0.068 C 
ATOM      5  C2  UNK     1      -0.904  36.108 236.114  1.00  0.00     0.033 C 
ATOM      6  C5  UNK     1      -1.870  35.631 235.040  1.00  0.00     0.105 C 
ATOM      7  C6  UNK     1       0.866  36.475 234.406  1.00  0.00     0.237 C 
ATOM      8  C7  UNK     1      -1.528  36.212 233.692  1.00  0.00     0.224 C 
ATOM      9  H7  UNK     1       0.025  36.991 232.612  1.00  0.00     0.171 HD
ENDROOT
BRANCH   4  10
ATOM     10  C3  UNK     1       1.488  36.406 236.809  1.00  0.00     0.020 C 
ATOM     11  C8  UNK     1       0.908  37.698 237.346  1.00  0.00     0.006 C 
ENDBRANCH   4  10
BRANCH   4  12
ATOM     12  C4  UNK     1       0.820  34.262 235.699  1.00  0.00    -0.040 A 
ATOM     13  C9  UNK     1       0.517  33.479 236.808  1.00  0.00     0.008 A 
ATOM     14  C11 UNK     1       0.753  32.105 236.768  1.00  0.00     0.001 A 
ATOM     15  C13 UNK     1       1.291  31.521 235.622  1.00  0.00     0.000 A 
ATOM     16  C12 UNK     1       1.592  32.312 234.513  1.00  0.00     0.001 A 
ATOM     17  C10 UNK     1       1.357  33.687 234.552  1.00  0.00     0.008 A 
ENDBRANCH   4  12
TORSDOF 2
ENDMDL
