MODEL 1
REMARK VINA RESULT:      -5.5      0.000      0.000
REMARK  7 active torsions:
REMARK  status: ('A' for Active; 'I' for Inactive)
REMARK    1  A    between atoms: O1_1  and  C2_6 
REMARK    2  A    between atoms: O1_1  and  C4_8 
REMARK    3  A    between atoms: O2_2  and  C1_5 
REMARK    4  A    between atoms: O3_3  and  C3_7 
REMARK    5  A    between atoms: O4_4  and  C5_9 
REMARK    6  A    between atoms: C1_5  and  C2_6 
REMARK    7  A    between atoms: C1_5  and  C3_7 
ROOT
ATOM      1  C4  UNK     1      -1.493  41.253 226.986  1.00  0.00     0.102 A 
ATOM      2  C5  UNK     1      -1.865  40.140 227.734  1.00  0.00     0.101 A 
ATOM      3  C6  UNK     1      -2.086  41.507 225.755  1.00  0.00     0.039 A 
ATOM      4  C7  UNK     1      -2.841  39.272 227.244  1.00  0.00     0.039 A 
ATOM      5  C8  UNK     1      -3.062  40.639 225.265  1.00  0.00     0.003 A 
ATOM      6  C9  UNK     1      -3.440  39.522 226.009  1.00  0.00     0.003 A 
ENDROOT
BRANCH   1   7
ATOM      7  O1  UNK     1      -0.536  42.112 227.457  1.00  0.00    -0.346 OA
BRANCH   7   8
ATOM      8  C2  UNK     1       0.729  42.081 226.805  1.00  0.00     0.209 C 
BRANCH   8   9
ATOM      9  C1  UNK     1       1.820  42.538 227.767  1.00  0.00     0.166 C 
BRANCH   9  10
ATOM     10  O2  UNK     1       1.807  43.967 227.828  1.00  0.00    -0.391 OA
ATOM     11  H8  UNK     1       1.843  44.218 228.766  1.00  0.00     0.210 HD
ENDBRANCH   9  10
BRANCH   9  12
ATOM     12  C3  UNK     1       1.580  42.006 229.174  1.00  0.00     0.198 C 
BRANCH  12  13
ATOM     13  O3  UNK     1       0.712  42.899 229.864  1.00  0.00    -0.398 OA
ATOM     14  H11 UNK     1       0.755  43.758 229.411  1.00  0.00     0.209 HD
ENDBRANCH  12  13
ENDBRANCH   9  12
ENDBRANCH   8   9
ENDBRANCH   7   8
ENDBRANCH   1   7
BRANCH   2  15
ATOM     15  O4  UNK     1      -1.286  39.885 228.941  1.00  0.00    -0.353 OA
ATOM     16  C10 UNK     1      -1.198  38.519 229.341  1.00  0.00     0.210 C 
ENDBRANCH   2  15
TORSDOF 7
ENDMDL
MODEL 2
REMARK VINA RESULT:      -5.3      1.065      2.466
REMARK  7 active torsions:
REMARK  status: ('A' for Active; 'I' for Inactive)
REMARK    1  A    between atoms: O1_1  and  C2_6 
REMARK    2  A    between atoms: O1_1  and  C4_8 
REMARK    3  A    between atoms: O2_2  and  C1_5 
REMARK    4  A    between atoms: O3_3  and  C3_7 
REMARK    5  A    between atoms: O4_4  and  C5_9 
REMARK    6  A    between atoms: C1_5  and  C2_6 
REMARK    7  A    between atoms: C1_5  and  C3_7 
ROOT
ATOM      1  C4  UNK     1      -1.033  40.850 227.615  1.00  0.00     0.102 A 
ATOM      2  C5  UNK     1      -2.122  40.610 226.782  1.00  0.00     0.101 A 
ATOM      3  C6  UNK     1      -0.717  39.961 228.637  1.00  0.00     0.039 A 
ATOM      4  C7  UNK     1      -2.903  39.470 226.974  1.00  0.00     0.039 A 
ATOM      5  C8  UNK     1      -1.498  38.822 228.829  1.00  0.00     0.003 A 
ATOM      6  C9  UNK     1      -2.590  38.576 227.997  1.00  0.00     0.003 A 
ENDROOT
BRANCH   1   7
ATOM      7  O1  UNK     1      -0.259  41.965 227.435  1.00  0.00    -0.346 OA
BRANCH   7   8
ATOM      8  C2  UNK     1       1.046  41.760 226.905  1.00  0.00     0.209 C 
BRANCH   8   9
ATOM      9  C1  UNK     1       2.061  42.576 227.698  1.00  0.00     0.166 C 
BRANCH   9  10
ATOM     10  O2  UNK     1       1.591  43.923 227.794  1.00  0.00    -0.391 OA
ATOM     11  H8  UNK     1       0.809  43.999 227.222  1.00  0.00     0.210 HD
ENDBRANCH   9  10
BRANCH   9  12
ATOM     12  C3  UNK     1       2.228  42.034 229.112  1.00  0.00     0.198 C 
BRANCH  12  13
ATOM     13  O3  UNK     1       1.226  42.605 229.947  1.00  0.00    -0.398 OA
ATOM     14  H11 UNK     1       1.081  43.519 229.647  1.00  0.00     0.209 HD
ENDBRANCH  12  13
ENDBRANCH   9  12
ENDBRANCH   8   9
ENDBRANCH   7   8
ENDBRANCH   1   7
BRANCH   2  15
ATOM     15  O4  UNK     1      -2.437  41.478 225.780  1.00  0.00    -0.353 OA
ATOM     16  C10 UNK     1      -2.281  41.007 224.442  1.00  0.00     0.210 C 
ENDBRANCH   2  15
TORSDOF 7
ENDMDL
MODEL 3
REMARK VINA RESULT:      -5.2      1.522      1.764
REMARK  7 active torsions:
REMARK  status: ('A' for Active; 'I' for Inactive)
REMARK    1  A    between atoms: O1_1  and  C2_6 
REMARK    2  A    between atoms: O1_1  and  C4_8 
REMARK    3  A    between atoms: O2_2  and  C1_5 
REMARK    4  A    between atoms: O3_3  and  C3_7 
REMARK    5  A    between atoms: O4_4  and  C5_9 
REMARK    6  A    between atoms: C1_5  and  C2_6 
REMARK    7  A    between atoms: C1_5  and  C3_7 
ROOT
ATOM      1  C4  UNK     1      -0.458  40.985 227.770  1.00  0.00     0.102 A 
ATOM      2  C5  UNK     1      -1.348  39.997 228.179  1.00  0.00     0.101 A 
ATOM      3  C6  UNK     1      -0.657  41.662 226.571  1.00  0.00     0.039 A 
ATOM      4  C7  UNK     1      -2.448  39.682 227.381  1.00  0.00     0.039 A 
ATOM      5  C8  UNK     1      -1.756  41.347 225.773  1.00  0.00     0.003 A 
ATOM      6  C9  UNK     1      -2.652  40.358 226.177  1.00  0.00     0.003 A 
ENDROOT
BRANCH   1   7
ATOM      7  O1  UNK     1       0.625  41.303 228.545  1.00  0.00    -0.346 OA
BRANCH   7   8
ATOM      8  C2  UNK     1       1.909  41.083 227.972  1.00  0.00     0.209 C 
BRANCH   8   9
ATOM      9  C1  UNK     1       2.776  42.324 228.152  1.00  0.00     0.166 C 
BRANCH   9  10
ATOM     10  O2  UNK     1       1.923  43.450 228.374  1.00  0.00    -0.391 OA
ATOM     11  H8  UNK     1       1.162  43.139 228.893  1.00  0.00     0.210 HD
ENDBRANCH   9  10
BRANCH   9  12
ATOM     12  C3  UNK     1       3.700  42.189 229.355  1.00  0.00     0.198 C 
BRANCH  12  13
ATOM     13  O3  UNK     1       5.046  42.115 228.898  1.00  0.00    -0.398 OA
ATOM     14  H11 UNK     1       5.211  42.897 228.344  1.00  0.00     0.209 HD
ENDBRANCH  12  13
ENDBRANCH   9  12
ENDBRANCH   8   9
ENDBRANCH   7   8
ENDBRANCH   1   7
BRANCH   2  15
ATOM     15  O4  UNK     1      -1.157  39.329 229.351  1.00  0.00    -0.353 OA
ATOM     16  C10 UNK     1      -1.447  37.932 229.356  1.00  0.00     0.210 C 
ENDBRANCH   2  15
TORSDOF 7
ENDMDL
MODEL 4
REMARK VINA RESULT:      -4.9     10.559     12.023
REMARK  7 active torsions:
REMARK  status: ('A' for Active; 'I' for Inactive)
REMARK    1  A    between atoms: O1_1  and  C2_6 
REMARK    2  A    between atoms: O1_1  and  C4_8 
REMARK    3  A    between atoms: O2_2  and  C1_5 
REMARK    4  A    between atoms: O3_3  and  C3_7 
REMARK    5  A    between atoms: O4_4  and  C5_9 
REMARK    6  A    between atoms: C1_5  and  C2_6 
REMARK    7  A    between atoms: C1_5  and  C3_7 
ROOT
ATOM      1  C4  UNK     1       1.477  36.411 237.127  1.00  0.00     0.102 A 
ATOM      2  C5  UNK     1       0.595  35.357 236.905  1.00  0.00     0.101 A 
ATOM      3  C6  UNK     1       1.032  37.727 237.071  1.00  0.00     0.039 A 
ATOM      4  C7  UNK     1      -0.744  35.623 236.622  1.00  0.00     0.039 A 
ATOM      5  C8  UNK     1      -0.308  37.993 236.787  1.00  0.00     0.003 A 
ATOM      6  C9  UNK     1      -1.196  36.942 236.564  1.00  0.00     0.003 A 
ENDROOT
BRANCH   1   7
ATOM      7  O1  UNK     1       2.794  36.162 237.406  1.00  0.00    -0.346 OA
BRANCH   7   8
ATOM      8  C2  UNK     1       3.430  37.039 238.329  1.00  0.00     0.209 C 
BRANCH   8   9
ATOM      9  C1  UNK     1       4.235  36.231 239.341  1.00  0.00     0.166 C 
BRANCH   9  10
ATOM     10  O2  UNK     1       3.776  36.558 240.656  1.00  0.00    -0.391 OA
ATOM     11  H8  UNK     1       4.560  36.749 241.198  1.00  0.00     0.210 HD
ENDBRANCH   9  10
BRANCH   9  12
ATOM     12  C3  UNK     1       4.045  34.734 239.135  1.00  0.00     0.198 C 
BRANCH  12  13
ATOM     13  O3  UNK     1       2.766  34.357 239.635  1.00  0.00    -0.398 OA
ATOM     14  H11 UNK     1       2.547  34.962 240.364  1.00  0.00     0.209 HD
ENDBRANCH  12  13
ENDBRANCH   9  12
ENDBRANCH   8   9
ENDBRANCH   7   8
ENDBRANCH   1   7
BRANCH   2  15
ATOM     15  O4  UNK     1       1.026  34.065 236.958  1.00  0.00    -0.353 OA
ATOM     16  C10 UNK     1       0.171  33.123 237.603  1.00  0.00     0.210 C 
ENDBRANCH   2  15
TORSDOF 7
ENDMDL
MODEL 5
REMARK VINA RESULT:      -4.9      8.535     10.549
REMARK  7 active torsions:
REMARK  status: ('A' for Active; 'I' for Inactive)
REMARK    1  A    between atoms: O1_1  and  C2_6 
REMARK    2  A    between atoms: O1_1  and  C4_8 
REMARK    3  A    between atoms: O2_2  and  C1_5 
REMARK    4  A    between atoms: O3_3  and  C3_7 
REMARK    5  A    between atoms: O4_4  and  C5_9 
REMARK    6  A    between atoms: C1_5  and  C2_6 
REMARK    7  A    between atoms: C1_5  and  C3_7 
ROOT
ATOM      1  C4  UNK     1       1.996  36.282 235.909  1.00  0.00     0.102 A 
ATOM      2  C5  UNK     1       1.843  35.128 235.147  1.00  0.00     0.101 A 
ATOM      3  C6  UNK     1       3.018  36.378 236.847  1.00  0.00     0.039 A 
ATOM      4  C7  UNK     1       2.721  34.059 235.325  1.00  0.00     0.039 A 
ATOM      5  C8  UNK     1       3.896  35.309 237.026  1.00  0.00     0.003 A 
ATOM      6  C9  UNK     1       3.748  34.150 236.265  1.00  0.00     0.003 A 
ENDROOT
BRANCH   1   7
ATOM      7  O1  UNK     1       1.140  37.337 235.742  1.00  0.00    -0.346 OA
BRANCH   7   8
ATOM      8  C2  UNK     1       0.512  37.843 236.915  1.00  0.00     0.209 C 
BRANCH   8   9
ATOM      9  C1  UNK     1      -0.996  37.921 236.702  1.00  0.00     0.166 C 
BRANCH   9  10
ATOM     10  O2  UNK     1      -1.304  39.159 236.057  1.00  0.00    -0.391 OA
ATOM     11  H8  UNK     1      -1.005  39.875 236.644  1.00  0.00     0.210 HD
ENDBRANCH   9  10
BRANCH   9  12
ATOM     12  C3  UNK     1      -1.492  36.790 235.811  1.00  0.00     0.198 C 
BRANCH  12  13
ATOM     13  O3  UNK     1      -1.342  37.177 234.448  1.00  0.00    -0.398 OA
ATOM     14  H11 UNK     1      -1.037  36.396 233.955  1.00  0.00     0.209 HD
ENDBRANCH  12  13
ENDBRANCH   9  12
ENDBRANCH   8   9
ENDBRANCH   7   8
ENDBRANCH   1   7
BRANCH   2  15
ATOM     15  O4  UNK     1       0.842  35.027 234.227  1.00  0.00    -0.353 OA
ATOM     16  C10 UNK     1       1.204  35.182 232.856  1.00  0.00     0.210 C 
ENDBRANCH   2  15
TORSDOF 7
ENDMDL
MODEL 6
REMARK VINA RESULT:      -4.8      9.539     11.986
REMARK  7 active torsions:
REMARK  status: ('A' for Active; 'I' for Inactive)
REMARK    1  A    between atoms: O1_1  and  C2_6 
REMARK    2  A    between atoms: O1_1  and  C4_8 
REMARK    3  A    between atoms: O2_2  and  C1_5 
REMARK    4  A    between atoms: O3_3  and  C3_7 
REMARK    5  A    between atoms: O4_4  and  C5_9 
REMARK    6  A    between atoms: C1_5  and  C2_6 
REMARK    7  A    between atoms: C1_5  and  C3_7 
ROOT
ATOM      1  C4  UNK     1       2.489  36.479 237.370  1.00  0.00     0.102 A 
ATOM      2  C5  UNK     1       2.548  35.247 238.014  1.00  0.00     0.101 A 
ATOM      3  C6  UNK     1       3.471  37.439 237.590  1.00  0.00     0.039 A 
ATOM      4  C7  UNK     1       3.600  34.973 238.888  1.00  0.00     0.039 A 
ATOM      5  C8  UNK     1       4.522  37.165 238.464  1.00  0.00     0.003 A 
ATOM      6  C9  UNK     1       4.588  35.932 239.113  1.00  0.00     0.003 A 
ENDROOT
BRANCH   1   7
ATOM      7  O1  UNK     1       1.461  36.759 236.510  1.00  0.00    -0.346 OA
BRANCH   7   8
ATOM      8  C2  UNK     1       0.829  38.026 236.660  1.00  0.00     0.209 C 
BRANCH   8   9
ATOM      9  C1  UNK     1      -0.685  37.847 236.699  1.00  0.00     0.166 C 
BRANCH   9  10
ATOM     10  O2  UNK     1      -1.296  38.978 236.072  1.00  0.00    -0.391 OA
ATOM     11  H8  UNK     1      -2.256  38.898 236.200  1.00  0.00     0.210 HD
ENDBRANCH   9  10
BRANCH   9  12
ATOM     12  C3  UNK     1      -1.119  36.599 235.940  1.00  0.00     0.198 C 
BRANCH  12  13
ATOM     13  O3  UNK     1      -1.013  35.474 236.806  1.00  0.00    -0.398 OA
ATOM     14  H11 UNK     1      -0.893  34.686 236.248  1.00  0.00     0.209 HD
ENDBRANCH  12  13
ENDBRANCH   9  12
ENDBRANCH   8   9
ENDBRANCH   7   8
ENDBRANCH   1   7
BRANCH   2  15
ATOM     15  O4  UNK     1       1.588  34.303 237.804  1.00  0.00    -0.353 OA
ATOM     16  C10 UNK     1       1.903  33.250 236.896  1.00  0.00     0.210 C 
ENDBRANCH   2  15
TORSDOF 7
ENDMDL
MODEL 7
REMARK VINA RESULT:      -4.8     10.476     11.567
REMARK  7 active torsions:
REMARK  status: ('A' for Active; 'I' for Inactive)
REMARK    1  A    between atoms: O1_1  and  C2_6 
REMARK    2  A    between atoms: O1_1  and  C4_8 
REMARK    3  A    between atoms: O2_2  and  C1_5 
REMARK    4  A    between atoms: O3_3  and  C3_7 
REMARK    5  A    between atoms: O4_4  and  C5_9 
REMARK    6  A    between atoms: C1_5  and  C2_6 
REMARK    7  A    between atoms: C1_5  and  C3_7 
ROOT
ATOM      1  C4  UNK     1       1.407  36.237 236.940  1.00  0.00     0.102 A 
ATOM      2  C5  UNK     1       0.384  35.344 236.637  1.00  0.00     0.101 A 
ATOM      3  C6  UNK     1       1.139  37.593 237.093  1.00  0.00     0.039 A 
ATOM      4  C7  UNK     1      -0.921  35.813 236.484  1.00  0.00     0.039 A 
ATOM      5  C8  UNK     1      -0.166  38.062 236.939  1.00  0.00     0.003 A 
ATOM      6  C9  UNK     1      -1.196  37.172 236.635  1.00  0.00     0.003 A 
ENDROOT
BRANCH   1   7
ATOM      7  O1  UNK     1       2.692  35.788 237.094  1.00  0.00    -0.346 OA
BRANCH   7   8
ATOM      8  C2  UNK     1       3.085  35.411 238.409  1.00  0.00     0.209 C 
BRANCH   8   9
ATOM      9  C1  UNK     1       3.705  36.606 239.126  1.00  0.00     0.166 C 
BRANCH   9  10
ATOM     10  O2  UNK     1       3.939  36.249 240.491  1.00  0.00    -0.391 OA
ATOM     11  H8  UNK     1       3.080  36.260 240.945  1.00  0.00     0.210 HD
ENDBRANCH   9  10
BRANCH   9  12
ATOM     12  C3  UNK     1       5.041  36.996 238.506  1.00  0.00     0.198 C 
BRANCH  12  13
ATOM     13  O3  UNK     1       4.800  37.834 237.381  1.00  0.00    -0.398 OA
ATOM     14  H11 UNK     1       5.665  38.076 237.006  1.00  0.00     0.209 HD
ENDBRANCH  12  13
ENDBRANCH   9  12
ENDBRANCH   8   9
ENDBRANCH   7   8
ENDBRANCH   1   7
BRANCH   2  15
ATOM     15  O4  UNK     1       0.641  34.015 236.485  1.00  0.00    -0.353 OA
ATOM     16  C10 UNK     1      -0.003  33.350 235.400  1.00  0.00     0.210 C 
ENDBRANCH   2  15
TORSDOF 7
ENDMDL
MODEL 8
REMARK VINA RESULT:      -4.8      2.347      3.371
REMARK  7 active torsions:
REMARK  status: ('A' for Active; 'I' for Inactive)
REMARK    1  A    between atoms: O1_1  and  C2_6 
REMARK    2  A    between atoms: O1_1  and  C4_8 
REMARK    3  A    between atoms: O2_2  and  C1_5 
REMARK    4  A    between atoms: O3_3  and  C3_7 
REMARK    5  A    between atoms: O4_4  and  C5_9 
REMARK    6  A    between atoms: C1_5  and  C2_6 
REMARK    7  A    between atoms: C1_5  and  C3_7 
ROOT
ATOM      1  C4  UNK     1       1.389  39.358 227.409  1.00  0.00     0.102 A 
ATOM      2  C5  UNK     1       0.125  39.407 227.990  1.00  0.00     0.101 A 
ATOM      3  C6  UNK     1       2.033  38.139 227.222  1.00  0.00     0.039 A 
ATOM      4  C7  UNK     1      -0.500  38.225 228.387  1.00  0.00     0.039 A 
ATOM      5  C8  UNK     1       1.408  36.958 227.621  1.00  0.00     0.003 A 
ATOM      6  C9  UNK     1       0.141  37.001 228.202  1.00  0.00     0.003 A 
ENDROOT
BRANCH   1   7
ATOM      7  O1  UNK     1       2.012  40.511 227.014  1.00  0.00    -0.346 OA
BRANCH   7   8
ATOM      8  C2  UNK     1       3.284  40.781 227.594  1.00  0.00     0.209 C 
BRANCH   8   9
ATOM      9  C1  UNK     1       3.175  41.959 228.557  1.00  0.00     0.166 C 
BRANCH   9  10
ATOM     10  O2  UNK     1       4.444  42.613 228.626  1.00  0.00    -0.391 OA
ATOM     11  H8  UNK     1       4.275  43.567 228.712  1.00  0.00     0.210 HD
ENDBRANCH   9  10
BRANCH   9  12
ATOM     12  C3  UNK     1       2.147  42.976 228.078  1.00  0.00     0.198 C 
BRANCH  12  13
ATOM     13  O3  UNK     1       1.004  42.911 228.925  1.00  0.00    -0.398 OA
ATOM     14  H11 UNK     1       0.331  42.377 228.470  1.00  0.00     0.209 HD
ENDBRANCH  12  13
ENDBRANCH   9  12
ENDBRANCH   8   9
ENDBRANCH   7   8
ENDBRANCH   1   7
BRANCH   2  15
ATOM     15  O4  UNK     1      -0.510  40.598 228.177  1.00  0.00    -0.353 OA
ATOM     16  C10 UNK     1      -1.920  40.553 228.391  1.00  0.00     0.210 C 
ENDBRANCH   2  15
TORSDOF 7
ENDMDL
MODEL 9
REMARK VINA RESULT:      -4.7      9.839     12.216
REMARK  7 active torsions:
REMARK  status: ('A' for Active; 'I' for Inactive)
REMARK    1  A    between atoms: O1_1  and  C2_6 
REMARK    2  A    between atoms: O1_1  and  C4_8 
REMARK    3  A    between atoms: O2_2  and  C1_5 
REMARK    4  A    between atoms: O3_3  and  C3_7 
REMARK    5  A    between atoms: O4_4  and  C5_9 
REMARK    6  A    between atoms: C1_5  and  C2_6 
REMARK    7  A    between atoms: C1_5  and  C3_7 
ROOT
ATOM      1  C4  UNK     1       2.710  34.752 237.272  1.00  0.00     0.102 A 
ATOM      2  C5  UNK     1       3.428  34.175 238.315  1.00  0.00     0.101 A 
ATOM      3  C6  UNK     1       2.708  34.169 236.009  1.00  0.00     0.039 A 
ATOM      4  C7  UNK     1       4.151  33.003 238.093  1.00  0.00     0.039 A 
ATOM      5  C8  UNK     1       3.431  32.998 235.787  1.00  0.00     0.003 A 
ATOM      6  C9  UNK     1       4.152  32.414 236.828  1.00  0.00     0.003 A 
ENDROOT
BRANCH   1   7
ATOM      7  O1  UNK     1       1.997  35.903 237.479  1.00  0.00    -0.346 OA
BRANCH   7   8
ATOM      8  C2  UNK     1       2.569  37.108 236.982  1.00  0.00     0.209 C 
BRANCH   8   9
ATOM      9  C1  UNK     1       1.499  37.938 236.280  1.00  0.00     0.166 C 
BRANCH   9  10
ATOM     10  O2  UNK     1       1.362  37.467 234.937  1.00  0.00    -0.391 OA
ATOM     11  H8  UNK     1       0.662  37.994 234.515  1.00  0.00     0.210 HD
ENDBRANCH   9  10
BRANCH   9  12
ATOM     12  C3  UNK     1       0.147  37.799 236.967  1.00  0.00     0.198 C 
BRANCH  12  13
ATOM     13  O3  UNK     1      -0.799  38.628 236.299  1.00  0.00    -0.398 OA
ATOM     14  H11 UNK     1      -1.663  38.186 236.350  1.00  0.00     0.209 HD
ENDBRANCH  12  13
ENDBRANCH   9  12
ENDBRANCH   8   9
ENDBRANCH   7   8
ENDBRANCH   1   7
BRANCH   2  15
ATOM     15  O4  UNK     1       3.435  34.743 239.554  1.00  0.00    -0.353 OA
ATOM     16  C10 UNK     1       4.628  35.417 239.951  1.00  0.00     0.210 C 
ENDBRANCH   2  15
TORSDOF 7
ENDMDL
