MODEL 1
REMARK VINA RESULT:      -5.8      0.000      0.000
REMARK  1 active torsions:
REMARK  status: ('A' for Active; 'I' for Inactive)
REMARK    1  A    between atoms: N1_3  and  C5_6 
ROOT
ATOM      1  C1  UNK     1       2.965  41.360 228.613  1.00  0.00     0.014 C 
ATOM      2  C2  UNK     1       1.772  43.356 227.796  1.00  0.00     0.046 C 
ATOM      3  C3  UNK     1       0.200  40.988 228.024  1.00  0.00    -0.041 C 
ATOM      4  C4  UNK     1       2.524  40.627 227.380  1.00  0.00    -0.041 C 
ATOM      5  C5  UNK     1       1.294  42.582 226.595  1.00  0.00     0.157 C 
ATOM      6  C6  UNK     1       1.945  42.414 228.944  1.00  0.00    -0.011 C 
ATOM      7  C7  UNK     1       1.216  39.963 227.641  1.00  0.00     0.018 C 
ATOM      8  C8  UNK     1      -0.031  41.923 226.887  1.00  0.00     0.050 C 
ATOM      9  C9  UNK     1       2.338  41.559 226.221  1.00  0.00     0.050 C 
ATOM     10  C10 UNK     1       0.629  41.770 229.224  1.00  0.00     0.014 C 
ATOM     11  C11 UNK     1      -1.019  40.235 228.368  1.00  0.00     0.015 C 
ATOM     12  C12 UNK     1       3.531  39.577 227.074  1.00  0.00     0.015 C 
ENDROOT
BRANCH   5  13
ATOM     13  N1  UNK     1       1.115  43.501 225.497  1.00  0.00     0.088 N 
ATOM     14  H5  UNK     1       1.041  42.988 224.641  1.00  0.00     0.313 HD
ATOM     15  H6  UNK     1       0.281  44.033 225.639  1.00  0.00     0.313 HD
ENDBRANCH   5  13
TORSDOF 1
ENDMDL
MODEL 2
REMARK VINA RESULT:      -5.8      0.657      2.840
REMARK  1 active torsions:
REMARK  status: ('A' for Active; 'I' for Inactive)
REMARK    1  A    between atoms: N1_3  and  C5_6 
ROOT
ATOM      1  C1  UNK     1       1.244  39.688 227.155  1.00  0.00     0.014 C 
ATOM      2  C2  UNK     1       2.201  41.513 225.801  1.00  0.00     0.046 C 
ATOM      3  C3  UNK     1       2.370  41.855 228.628  1.00  0.00    -0.041 C 
ATOM      4  C4  UNK     1       0.373  40.696 227.845  1.00  0.00    -0.041 C 
ATOM      5  C5  UNK     1       1.358  42.513 226.549  1.00  0.00     0.157 C 
ATOM      6  C6  UNK     1       2.511  40.365 226.707  1.00  0.00    -0.011 C 
ATOM      7  C7  UNK     1       1.082  41.224 229.043  1.00  0.00     0.018 C 
ATOM      8  C8  UNK     1       2.101  43.032 227.754  1.00  0.00     0.050 C 
ATOM      9  C9  UNK     1       0.059  41.858 226.952  1.00  0.00     0.050 C 
ATOM     10  C10 UNK     1       3.246  40.890 227.895  1.00  0.00     0.014 C 
ATOM     11  C11 UNK     1       3.047  42.245 229.877  1.00  0.00     0.015 C 
ATOM     12  C12 UNK     1      -0.867  40.011 228.297  1.00  0.00     0.015 C 
ENDROOT
BRANCH   5  13
ATOM     13  N1  UNK     1       1.076  43.624 225.672  1.00  0.00     0.088 N 
ATOM     14  H5  UNK     1       1.742  44.353 225.833  1.00  0.00     0.313 HD
ATOM     15  H6  UNK     1       1.136  43.322 224.721  1.00  0.00     0.313 HD
ENDBRANCH   5  13
TORSDOF 1
ENDMDL
MODEL 3
REMARK VINA RESULT:      -5.2     10.689     11.700
REMARK  1 active torsions:
REMARK  status: ('A' for Active; 'I' for Inactive)
REMARK    1  A    between atoms: N1_3  and  C5_6 
ROOT
ATOM      1  C1  UNK     1       4.278  35.737 236.573  1.00  0.00     0.014 C 
ATOM      2  C2  UNK     1       2.486  34.071 236.271  1.00  0.00     0.046 C 
ATOM      3  C3  UNK     1       1.616  36.745 236.747  1.00  0.00    -0.041 C 
ATOM      4  C4  UNK     1       3.671  36.108 237.894  1.00  0.00    -0.041 C 
ATOM      5  C5  UNK     1       1.863  34.501 237.574  1.00  0.00     0.157 C 
ATOM      6  C6  UNK     1       3.191  35.240 235.660  1.00  0.00    -0.011 C 
ATOM      7  C7  UNK     1       2.678  37.200 237.693  1.00  0.00     0.018 C 
ATOM      8  C8  UNK     1       0.862  35.604 237.340  1.00  0.00     0.050 C 
ATOM      9  C9  UNK     1       2.953  34.949 238.516  1.00  0.00     0.050 C 
ATOM     10  C10 UNK     1       2.190  36.323 235.433  1.00  0.00     0.014 C 
ATOM     11  C11 UNK     1       0.749  37.915 236.524  1.00  0.00     0.015 C 
ATOM     12  C12 UNK     1       4.752  36.614 238.780  1.00  0.00     0.015 C 
ENDROOT
BRANCH   5  13
ATOM     13  N1  UNK     1       1.173  33.372 238.149  1.00  0.00     0.088 N 
ATOM     14  H5  UNK     1       1.841  32.685 238.438  1.00  0.00     0.313 HD
ATOM     15  H6  UNK     1       0.641  33.673 238.940  1.00  0.00     0.313 HD
ENDBRANCH   5  13
TORSDOF 1
ENDMDL
MODEL 4
REMARK VINA RESULT:      -5.1     10.236     11.305
REMARK  1 active torsions:
REMARK  status: ('A' for Active; 'I' for Inactive)
REMARK    1  A    between atoms: N1_3  and  C5_6 
ROOT
ATOM      1  C1  UNK     1       1.999  34.158 235.781  1.00  0.00     0.014 C 
ATOM      2  C2  UNK     1       2.050  36.527 235.103  1.00  0.00     0.046 C 
ATOM      3  C3  UNK     1       3.262  35.938 237.616  1.00  0.00    -0.041 C 
ATOM      4  C4  UNK     1       1.325  34.567 237.057  1.00  0.00    -0.041 C 
ATOM      5  C5  UNK     1       1.424  36.919 236.417  1.00  0.00     0.157 C 
ATOM      6  C6  UNK     1       2.866  35.290 235.303  1.00  0.00    -0.011 C 
ATOM      7  C7  UNK     1       2.358  34.850 238.093  1.00  0.00     0.018 C 
ATOM      8  C8  UNK     1       2.492  37.201 237.444  1.00  0.00     0.050 C 
ATOM      9  C9  UNK     1       0.509  35.810 236.876  1.00  0.00     0.050 C 
ATOM     10  C10 UNK     1       3.918  35.582 236.320  1.00  0.00     0.014 C 
ATOM     11  C11 UNK     1       4.307  36.071 238.647  1.00  0.00     0.015 C 
ATOM     12  C12 UNK     1       0.486  33.433 237.528  1.00  0.00     0.015 C 
ENDROOT
BRANCH   5  13
ATOM     13  N1  UNK     1       0.652  38.121 236.218  1.00  0.00     0.088 N 
ATOM     14  H5  UNK     1       0.368  38.181 235.261  1.00  0.00     0.313 HD
ATOM     15  H6  UNK     1      -0.158  38.098 236.804  1.00  0.00     0.313 HD
ENDBRANCH   5  13
TORSDOF 1
ENDMDL
MODEL 5
REMARK VINA RESULT:      -5.1     10.556     11.612
REMARK  1 active torsions:
REMARK  status: ('A' for Active; 'I' for Inactive)
REMARK    1  A    between atoms: N1_3  and  C5_6 
ROOT
ATOM      1  C1  UNK     1       1.951  36.612 235.427  1.00  0.00     0.014 C 
ATOM      2  C2  UNK     1       3.976  35.683 236.481  1.00  0.00     0.046 C 
ATOM      3  C3  UNK     1       1.523  34.412 237.191  1.00  0.00    -0.041 C 
ATOM      4  C4  UNK     1       1.367  36.813 236.794  1.00  0.00    -0.041 C 
ATOM      5  C5  UNK     1       3.345  35.841 237.840  1.00  0.00     0.157 C 
ATOM      6  C6  UNK     1       2.901  35.446 235.470  1.00  0.00    -0.011 C 
ATOM      7  C7  UNK     1       0.610  35.593 237.193  1.00  0.00     0.018 C 
ATOM      8  C8  UNK     1       2.589  34.592 238.218  1.00  0.00     0.050 C 
ATOM      9  C9  UNK     1       2.433  37.043 237.822  1.00  0.00     0.050 C 
ATOM     10  C10 UNK     1       2.160  34.209 235.854  1.00  0.00     0.014 C 
ATOM     11  C11 UNK     1       0.672  33.246 237.486  1.00  0.00     0.015 C 
ATOM     12  C12 UNK     1       0.417  37.956 236.735  1.00  0.00     0.015 C 
ENDROOT
BRANCH   5  13
ATOM     13  N1  UNK     1       4.391  36.053 238.811  1.00  0.00     0.088 N 
ATOM     14  H5  UNK     1       5.278  35.847 238.397  1.00  0.00     0.313 HD
ATOM     15  H6  UNK     1       4.378  37.007 239.112  1.00  0.00     0.313 HD
ENDBRANCH   5  13
TORSDOF 1
ENDMDL
MODEL 6
REMARK VINA RESULT:      -4.9      9.642     10.848
REMARK  1 active torsions:
REMARK  status: ('A' for Active; 'I' for Inactive)
REMARK    1  A    between atoms: N1_3  and  C5_6 
ROOT
ATOM      1  C1  UNK     1      -0.052  37.401 236.890  1.00  0.00     0.014 C 
ATOM      2  C2  UNK     1       2.108  36.439 237.588  1.00  0.00     0.046 C 
ATOM      3  C3  UNK     1       1.393  36.015 234.860  1.00  0.00    -0.041 C 
ATOM      4  C4  UNK     1      -0.475  36.039 236.425  1.00  0.00    -0.041 C 
ATOM      5  C5  UNK     1       1.682  35.093 237.062  1.00  0.00     0.157 C 
ATOM      6  C6  UNK     1       1.444  37.509 236.782  1.00  0.00    -0.011 C 
ATOM      7  C7  UNK     1      -0.085  35.859 234.999  1.00  0.00     0.018 C 
ATOM      8  C8  UNK     1       2.091  34.939 235.619  1.00  0.00     0.050 C 
ATOM      9  C9  UNK     1       0.187  34.954 237.219  1.00  0.00     0.050 C 
ATOM     10  C10 UNK     1       1.858  37.346 235.357  1.00  0.00     0.014 C 
ATOM     11  C11 UNK     1       1.671  35.933 233.415  1.00  0.00     0.015 C 
ATOM     12  C12 UNK     1      -1.957  35.951 236.521  1.00  0.00     0.015 C 
ENDROOT
BRANCH   5  13
ATOM     13  N1  UNK     1       2.338  34.068 237.835  1.00  0.00     0.088 N 
ATOM     14  H5  UNK     1       3.225  34.405 238.152  1.00  0.00     0.313 HD
ATOM     15  H6  UNK     1       1.771  33.831 238.624  1.00  0.00     0.313 HD
ENDBRANCH   5  13
TORSDOF 1
ENDMDL
MODEL 7
REMARK VINA RESULT:      -4.9      9.430     10.535
REMARK  1 active torsions:
REMARK  status: ('A' for Active; 'I' for Inactive)
REMARK    1  A    between atoms: N1_3  and  C5_6 
ROOT
ATOM      1  C1  UNK     1       2.104  35.328 237.366  1.00  0.00     0.014 C 
ATOM      2  C2  UNK     1      -0.318  35.049 237.006  1.00  0.00     0.046 C 
ATOM      3  C3  UNK     1       1.199  35.754 234.696  1.00  0.00    -0.041 C 
ATOM      4  C4  UNK     1       2.001  36.710 236.790  1.00  0.00    -0.041 C 
ATOM      5  C5  UNK     1      -0.386  36.417 236.378  1.00  0.00     0.157 C 
ATOM      6  C6  UNK     1       1.035  34.465 236.755  1.00  0.00    -0.011 C 
ATOM      7  C7  UNK     1       2.219  36.649 235.318  1.00  0.00     0.018 C 
ATOM      8  C8  UNK     1      -0.164  36.324 234.890  1.00  0.00     0.050 C 
ATOM      9  C9  UNK     1       0.647  37.307 237.026  1.00  0.00     0.050 C 
ATOM     10  C10 UNK     1       1.242  34.378 235.280  1.00  0.00     0.014 C 
ATOM     11  C11 UNK     1       1.557  35.667 233.269  1.00  0.00     0.015 C 
ATOM     12  C12 UNK     1       3.074  37.548 237.389  1.00  0.00     0.015 C 
ENDROOT
BRANCH   5  13
ATOM     13  N1  UNK     1      -1.699  36.966 236.612  1.00  0.00     0.088 N 
ATOM     14  H5  UNK     1      -1.723  37.917 236.302  1.00  0.00     0.313 HD
ATOM     15  H6  UNK     1      -2.378  36.434 236.107  1.00  0.00     0.313 HD
ENDBRANCH   5  13
TORSDOF 1
ENDMDL
MODEL 8
REMARK VINA RESULT:      -4.9     10.969     11.994
REMARK  1 active torsions:
REMARK  status: ('A' for Active; 'I' for Inactive)
REMARK    1  A    between atoms: N1_3  and  C5_6 
ROOT
ATOM      1  C1  UNK     1       2.196  34.690 235.556  1.00  0.00     0.014 C 
ATOM      2  C2  UNK     1       4.419  35.640 236.035  1.00  0.00     0.046 C 
ATOM      3  C3  UNK     1       3.184  34.242 238.193  1.00  0.00    -0.041 C 
ATOM      4  C4  UNK     1       1.651  35.447 236.731  1.00  0.00    -0.041 C 
ATOM      5  C5  UNK     1       3.861  36.345 237.244  1.00  0.00     0.157 C 
ATOM      6  C6  UNK     1       3.646  34.381 235.806  1.00  0.00    -0.011 C 
ATOM      7  C7  UNK     1       1.756  34.605 237.954  1.00  0.00     0.018 C 
ATOM      8  C8  UNK     1       3.982  35.470 238.466  1.00  0.00     0.050 C 
ATOM      9  C9  UNK     1       2.420  36.709 236.979  1.00  0.00     0.050 C 
ATOM     10  C10 UNK     1       3.775  33.524 237.021  1.00  0.00     0.014 C 
ATOM     11  C11 UNK     1       3.179  33.326 239.347  1.00  0.00     0.015 C 
ATOM     12  C12 UNK     1       0.213  35.731 236.479  1.00  0.00     0.015 C 
ENDROOT
BRANCH   5  13
ATOM     13  N1  UNK     1       4.622  37.550 237.467  1.00  0.00     0.088 N 
ATOM     14  H5  UNK     1       4.859  37.962 236.586  1.00  0.00     0.313 HD
ATOM     15  H6  UNK     1       4.076  38.195 238.000  1.00  0.00     0.313 HD
ENDBRANCH   5  13
TORSDOF 1
ENDMDL
MODEL 9
REMARK VINA RESULT:      -4.8      9.478     10.443
REMARK  1 active torsions:
REMARK  status: ('A' for Active; 'I' for Inactive)
REMARK    1  A    between atoms: N1_3  and  C5_6 
ROOT
ATOM      1  C1  UNK     1       1.144  34.372 235.316  1.00  0.00     0.014 C 
ATOM      2  C2  UNK     1       2.646  34.934 237.188  1.00  0.00     0.046 C 
ATOM      3  C3  UNK     1       0.693  36.908 236.538  1.00  0.00    -0.041 C 
ATOM      4  C4  UNK     1       1.557  35.646 234.640  1.00  0.00    -0.041 C 
ATOM      5  C5  UNK     1       3.001  36.235 236.516  1.00  0.00     0.157 C 
ATOM      6  C6  UNK     1       1.252  34.554 236.805  1.00  0.00    -0.011 C 
ATOM      7  C7  UNK     1       0.642  36.745 235.055  1.00  0.00     0.018 C 
ATOM      8  C8  UNK     1       2.060  37.328 236.956  1.00  0.00     0.050 C 
ATOM      9  C9  UNK     1       2.950  36.046 235.019  1.00  0.00     0.050 C 
ATOM     10  C10 UNK     1       0.331  35.642 237.246  1.00  0.00     0.014 C 
ATOM     11  C11 UNK     1      -0.317  37.931 236.865  1.00  0.00     0.015 C 
ATOM     12  C12 UNK     1       1.430  35.459 233.170  1.00  0.00     0.015 C 
ENDROOT
BRANCH   5  13
ATOM     13  N1  UNK     1       4.342  36.602 236.903  1.00  0.00     0.088 N 
ATOM     14  H5  UNK     1       4.759  37.153 236.179  1.00  0.00     0.313 HD
ATOM     15  H6  UNK     1       4.311  37.133 237.749  1.00  0.00     0.313 HD
ENDBRANCH   5  13
TORSDOF 1
ENDMDL
