MODEL 1
REMARK VINA RESULT:      -6.4      0.000      0.000
REMARK  6 active torsions:
REMARK  status: ('A' for Active; 'I' for Inactive)
REMARK    1  A    between atoms: O1_1  and  C8_18 
REMARK    2  A    between atoms: O1_1  and  C16_26 
REMARK    3  A    between atoms: O2_2  and  C11_21 
REMARK    4  A    between atoms: C1_11  and  C4_14 
REMARK    5  A    between atoms: C2_12  and  C8_18 
REMARK    6  A    between atoms: C3_13  and  C11_21 
ROOT
ATOM      1  N1  UNK     1       1.064  37.774 237.064  1.00  0.00    -0.362 N 
ATOM      2  C1  UNK     1       0.663  35.072 236.316  1.00  0.00     0.103 C 
ATOM      3  C2  UNK     1       2.014  35.624 236.783  1.00  0.00     0.052 C 
ATOM      4  C3  UNK     1      -0.477  36.085 236.451  1.00  0.00     0.052 C 
ATOM      5  C5  UNK     1       2.159  36.928 237.117  1.00  0.00     0.018 C 
ATOM      6  C6  UNK     1      -0.233  37.372 236.785  1.00  0.00     0.018 C 
ATOM      7  C10 UNK     1       3.444  37.579 237.550  1.00  0.00     0.069 C 
ATOM      8  C12 UNK     1      -1.271  38.456 236.895  1.00  0.00     0.069 C 
ATOM      9  H2  UNK     1       1.209  38.746 237.313  1.00  0.00     0.165 HD
ENDROOT
BRANCH   2  10
ATOM     10  C4  UNK     1       0.766  34.605 234.891  1.00  0.00    -0.014 A 
ATOM     11  C7  UNK     1       0.559  33.285 234.476  1.00  0.00     0.092 A 
ATOM     12  N2  UNK     1       0.241  32.199 235.191  1.00  0.00    -0.239 N 
ATOM     13  C13 UNK     1       0.673  32.891 233.076  1.00  0.00     0.086 A 
ATOM     14  O4  UNK     1       0.157  31.158 234.282  1.00  0.00    -0.156 OA
ATOM     15  H2  UNK     1       0.092  32.148 236.199  1.00  0.00     0.197 HD
ATOM     16  N3  UNK     1       0.421  31.578 232.991  1.00  0.00    -0.240 N 
ATOM     17  H3  UNK     1       0.424  31.005 232.146  1.00  0.00     0.197 HD
ATOM     18  C15 UNK     1       0.998  33.808 232.060  1.00  0.00     0.034 A 
ATOM     19  C14 UNK     1       1.202  35.125 232.511  1.00  0.00     0.003 A 
ATOM     20  C9  UNK     1       1.090  35.508 233.873  1.00  0.00     0.011 A 
ENDBRANCH   2  10
BRANCH   3  21
ATOM     21  C8  UNK     1       3.115  34.656 236.909  1.00  0.00     0.292 C 
ATOM     22  O3  UNK     1       3.979  34.511 236.065  1.00  0.00    -0.259 OA
BRANCH  21  23
ATOM     23  O1  UNK     1       2.975  34.001 238.087  1.00  0.00    -0.313 OA
BRANCH  23  24
ATOM     24  C16 UNK     1       4.199  33.703 238.765  1.00  0.00     0.124 C 
ATOM     25  C17 UNK     1       4.502  34.812 239.762  1.00  0.00     0.040 C 
ATOM     26  C18 UNK     1       4.080  32.347 239.445  1.00  0.00     0.040 C 
ENDBRANCH  23  24
ENDBRANCH  21  23
ENDBRANCH   3  21
BRANCH   4  27
ATOM     27  C11 UNK     1      -1.843  35.573 236.250  1.00  0.00     0.291 C 
ATOM     28  O5  UNK     1      -2.462  34.965 237.103  1.00  0.00    -0.260 OA
BRANCH  27  29
ATOM     29  O2  UNK     1      -2.241  35.899 234.996  1.00  0.00    -0.323 OA
ATOM     30  C19 UNK     1      -2.876  34.844 234.268  1.00  0.00     0.213 C 
ENDBRANCH  27  29
ENDBRANCH   4  27
TORSDOF 6
ENDMDL
MODEL 2
REMARK VINA RESULT:      -6.1      2.114      5.853
REMARK  6 active torsions:
REMARK  status: ('A' for Active; 'I' for Inactive)
REMARK    1  A    between atoms: O1_1  and  C8_18 
REMARK    2  A    between atoms: O1_1  and  C16_26 
REMARK    3  A    between atoms: O2_2  and  C11_21 
REMARK    4  A    between atoms: C1_11  and  C4_14 
REMARK    5  A    between atoms: C2_12  and  C8_18 
REMARK    6  A    between atoms: C3_13  and  C11_21 
ROOT
ATOM      1  N1  UNK     1       0.103  33.071 233.173  1.00  0.00    -0.362 N 
ATOM      2  C1  UNK     1       0.846  33.211 235.903  1.00  0.00     0.103 C 
ATOM      3  C2  UNK     1      -0.204  34.129 235.268  1.00  0.00     0.052 C 
ATOM      4  C3  UNK     1       1.330  32.110 234.955  1.00  0.00     0.052 C 
ATOM      5  C5  UNK     1      -0.515  34.033 233.954  1.00  0.00     0.018 C 
ATOM      6  C6  UNK     1       0.969  32.100 233.652  1.00  0.00     0.018 C 
ATOM      7  C10 UNK     1      -1.500  34.906 233.226  1.00  0.00     0.069 C 
ATOM      8  C12 UNK     1       1.427  31.097 232.628  1.00  0.00     0.069 C 
ATOM      9  H2  UNK     1      -0.147  33.032 232.192  1.00  0.00     0.165 HD
ENDROOT
BRANCH   2  10
ATOM     10  C4  UNK     1       2.016  34.026 236.380  1.00  0.00    -0.014 A 
ATOM     11  C7  UNK     1       2.463  34.064 237.705  1.00  0.00     0.092 A 
ATOM     12  N2  UNK     1       1.995  33.432 238.789  1.00  0.00    -0.239 N 
ATOM     13  C13 UNK     1       3.606  34.874 238.110  1.00  0.00     0.086 A 
ATOM     14  O4  UNK     1       2.808  33.825 239.838  1.00  0.00    -0.156 OA
ATOM     15  H2  UNK     1       1.202  32.791 238.833  1.00  0.00     0.197 HD
ATOM     16  N3  UNK     1       3.792  34.707 239.425  1.00  0.00    -0.240 N 
ATOM     17  H3  UNK     1       4.511  35.140 240.005  1.00  0.00     0.197 HD
ATOM     18  C15 UNK     1       4.327  35.666 237.197  1.00  0.00     0.034 A 
ATOM     19  C14 UNK     1       3.852  35.607 235.875  1.00  0.00     0.003 A 
ATOM     20  C9  UNK     1       2.739  34.818 235.482  1.00  0.00     0.011 A 
ENDBRANCH   2  10
BRANCH   3  21
ATOM     21  C8  UNK     1      -0.894  35.065 236.170  1.00  0.00     0.292 C 
ATOM     22  O3  UNK     1      -1.683  34.711 237.026  1.00  0.00    -0.259 OA
BRANCH  21  23
ATOM     23  O1  UNK     1      -0.492  36.324 235.869  1.00  0.00    -0.313 OA
BRANCH  23  24
ATOM     24  C16 UNK     1      -0.384  37.210 236.987  1.00  0.00     0.124 C 
ATOM     25  C17 UNK     1       1.052  37.700 237.102  1.00  0.00     0.040 C 
ATOM     26  C18 UNK     1      -1.364  38.362 236.812  1.00  0.00     0.040 C 
ENDBRANCH  23  24
ENDBRANCH  21  23
ENDBRANCH   3  21
BRANCH   4  27
ATOM     27  C11 UNK     1       2.158  31.047 235.547  1.00  0.00     0.291 C 
ATOM     28  O5  UNK     1       1.711  30.173 236.267  1.00  0.00    -0.260 OA
BRANCH  27  29
ATOM     29  O2  UNK     1       3.440  31.231 235.148  1.00  0.00    -0.323 OA
ATOM     30  C19 UNK     1       4.409  31.224 236.200  1.00  0.00     0.213 C 
ENDBRANCH  27  29
ENDBRANCH   4  27
TORSDOF 6
ENDMDL
MODEL 3
REMARK VINA RESULT:      -6.0      1.919      4.845
REMARK  6 active torsions:
REMARK  status: ('A' for Active; 'I' for Inactive)
REMARK    1  A    between atoms: O1_1  and  C8_18 
REMARK    2  A    between atoms: O1_1  and  C16_26 
REMARK    3  A    between atoms: O2_2  and  C11_21 
REMARK    4  A    between atoms: C1_11  and  C4_14 
REMARK    5  A    between atoms: C2_12  and  C8_18 
REMARK    6  A    between atoms: C3_13  and  C11_21 
ROOT
ATOM      1  N1  UNK     1       2.038  31.792 234.889  1.00  0.00    -0.362 N 
ATOM      2  C1  UNK     1       1.507  34.524 235.416  1.00  0.00     0.103 C 
ATOM      3  C2  UNK     1       2.167  33.583 236.431  1.00  0.00     0.052 C 
ATOM      4  C3  UNK     1       1.315  33.879 234.040  1.00  0.00     0.052 C 
ATOM      5  C5  UNK     1       2.387  32.281 236.137  1.00  0.00     0.018 C 
ATOM      6  C6  UNK     1       1.557  32.564 233.843  1.00  0.00     0.018 C 
ATOM      7  C10 UNK     1       2.991  31.267 237.070  1.00  0.00     0.069 C 
ATOM      8  C12 UNK     1       1.353  31.824 232.549  1.00  0.00     0.069 C 
ATOM      9  H2  UNK     1       2.209  30.810 234.706  1.00  0.00     0.165 HD
ENDROOT
BRANCH   2  10
ATOM     10  C4  UNK     1       0.184  35.001 235.946  1.00  0.00    -0.014 A 
ATOM     11  C7  UNK     1      -0.124  36.341 236.207  1.00  0.00     0.092 A 
ATOM     12  N2  UNK     1       0.625  37.440 236.059  1.00  0.00    -0.239 N 
ATOM     13  C13 UNK     1      -1.427  36.745 236.722  1.00  0.00     0.086 A 
ATOM     14  O4  UNK     1      -0.170  38.498 236.463  1.00  0.00    -0.156 OA
ATOM     15  H2  UNK     1       1.586  37.489 235.718  1.00  0.00     0.197 HD
ATOM     16  N3  UNK     1      -1.424  38.076 236.869  1.00  0.00    -0.240 N 
ATOM     17  H3  UNK     1      -2.188  38.659 237.210  1.00  0.00     0.197 HD
ATOM     18  C15 UNK     1      -2.452  35.818 236.988  1.00  0.00     0.034 A 
ATOM     19  C14 UNK     1      -2.110  34.481 236.716  1.00  0.00     0.003 A 
ATOM     20  C9  UNK     1      -0.841  34.088 236.215  1.00  0.00     0.011 A 
ENDBRANCH   2  10
BRANCH   3  21
ATOM     21  C8  UNK     1       2.601  34.185 237.701  1.00  0.00     0.292 C 
ATOM     22  O3  UNK     1       2.094  33.919 238.776  1.00  0.00    -0.259 OA
BRANCH  21  23
ATOM     23  O1  UNK     1       3.619  35.041 237.443  1.00  0.00    -0.313 OA
BRANCH  23  24
ATOM     24  C16 UNK     1       3.649  36.213 238.264  1.00  0.00     0.124 C 
ATOM     25  C17 UNK     1       4.762  36.077 239.292  1.00  0.00     0.040 C 
ATOM     26  C18 UNK     1       3.839  37.438 237.382  1.00  0.00     0.040 C 
ENDBRANCH  23  24
ENDBRANCH  21  23
ENDBRANCH   3  21
BRANCH   4  27
ATOM     27  C11 UNK     1       0.908  34.774 232.944  1.00  0.00     0.291 C 
ATOM     28  O5  UNK     1       1.689  35.475 232.327  1.00  0.00    -0.260 OA
BRANCH  27  29
ATOM     29  O2  UNK     1      -0.432  34.661 232.775  1.00  0.00    -0.323 OA
ATOM     30  C19 UNK     1      -1.130  35.900 232.621  1.00  0.00     0.213 C 
ENDBRANCH  27  29
ENDBRANCH   4  27
TORSDOF 6
ENDMDL
MODEL 4
REMARK VINA RESULT:      -6.0      2.599      4.131
REMARK  6 active torsions:
REMARK  status: ('A' for Active; 'I' for Inactive)
REMARK    1  A    between atoms: O1_1  and  C8_18 
REMARK    2  A    between atoms: O1_1  and  C16_26 
REMARK    3  A    between atoms: O2_2  and  C11_21 
REMARK    4  A    between atoms: C1_11  and  C4_14 
REMARK    5  A    between atoms: C2_12  and  C8_18 
REMARK    6  A    between atoms: C3_13  and  C11_21 
ROOT
ATOM      1  N1  UNK     1       3.002  34.813 238.132  1.00  0.00    -0.362 N 
ATOM      2  C1  UNK     1       0.508  35.099 236.819  1.00  0.00     0.103 C 
ATOM      3  C2  UNK     1       0.957  33.801 237.500  1.00  0.00     0.052 C 
ATOM      4  C3  UNK     1       1.469  36.266 237.062  1.00  0.00     0.052 C 
ATOM      5  C5  UNK     1       2.166  33.709 238.103  1.00  0.00     0.018 C 
ATOM      6  C6  UNK     1       2.662  36.075 237.669  1.00  0.00     0.018 C 
ATOM      7  C10 UNK     1       2.718  32.477 238.765  1.00  0.00     0.069 C 
ATOM      8  C12 UNK     1       3.698  37.140 237.910  1.00  0.00     0.069 C 
ATOM      9  H2  UNK     1       3.902  34.708 238.584  1.00  0.00     0.165 HD
ENDROOT
BRANCH   2  10
ATOM     10  C4  UNK     1       0.342  34.870 235.343  1.00  0.00    -0.014 A 
ATOM     11  C7  UNK     1      -0.853  35.069 234.643  1.00  0.00     0.092 A 
ATOM     12  N2  UNK     1      -2.049  35.480 235.083  1.00  0.00    -0.239 N 
ATOM     13  C13 UNK     1      -0.954  34.831 233.208  1.00  0.00     0.086 A 
ATOM     14  O4  UNK     1      -2.875  35.501 233.972  1.00  0.00    -0.156 OA
ATOM     15  H2  UNK     1      -2.301  35.726 236.040  1.00  0.00     0.197 HD
ATOM     16  N3  UNK     1      -2.208  35.104 232.826  1.00  0.00    -0.240 N 
ATOM     17  H3  UNK     1      -2.594  35.035 231.884  1.00  0.00     0.197 HD
ATOM     18  C15 UNK     1       0.139  34.387 232.440  1.00  0.00     0.034 A 
ATOM     19  C14 UNK     1       1.324  34.197 233.173  1.00  0.00     0.003 A 
ATOM     20  C9  UNK     1       1.422  34.429 234.570  1.00  0.00     0.011 A 
ENDBRANCH   2  10
BRANCH   3  21
ATOM     21  C8  UNK     1      -0.014  32.696 237.519  1.00  0.00     0.292 C 
ATOM     22  O3  UNK     1      -0.168  31.924 236.590  1.00  0.00    -0.259 OA
BRANCH  21  23
ATOM     23  O1  UNK     1      -0.660  32.713 238.710  1.00  0.00    -0.313 OA
BRANCH  23  24
ATOM     24  C16 UNK     1      -2.083  32.590 238.630  1.00  0.00     0.124 C 
ATOM     25  C17 UNK     1      -2.626  32.162 239.986  1.00  0.00     0.040 C 
ATOM     26  C18 UNK     1      -2.677  33.915 238.174  1.00  0.00     0.040 C 
ENDBRANCH  23  24
ENDBRANCH  21  23
ENDBRANCH   3  21
BRANCH   4  27
ATOM     27  C11 UNK     1       1.005  37.600 236.647  1.00  0.00     0.291 C 
ATOM     28  O5  UNK     1       1.432  38.182 235.667  1.00  0.00    -0.260 OA
BRANCH  27  29
ATOM     29  O2  UNK     1       0.064  38.018 237.528  1.00  0.00    -0.323 OA
ATOM     30  C19 UNK     1      -1.203  38.346 236.951  1.00  0.00     0.213 C 
ENDBRANCH  27  29
ENDBRANCH   4  27
TORSDOF 6
ENDMDL
MODEL 5
REMARK VINA RESULT:      -5.8      2.100      5.042
REMARK  6 active torsions:
REMARK  status: ('A' for Active; 'I' for Inactive)
REMARK    1  A    between atoms: O1_1  and  C8_18 
REMARK    2  A    between atoms: O1_1  and  C16_26 
REMARK    3  A    between atoms: O2_2  and  C11_21 
REMARK    4  A    between atoms: C1_11  and  C4_14 
REMARK    5  A    between atoms: C2_12  and  C8_18 
REMARK    6  A    between atoms: C3_13  and  C11_21 
ROOT
ATOM      1  N1  UNK     1       0.062  33.302 237.991  1.00  0.00    -0.362 N 
ATOM      2  C1  UNK     1       0.941  34.316 235.495  1.00  0.00     0.103 C 
ATOM      3  C2  UNK     1      -0.455  34.585 236.070  1.00  0.00     0.052 C 
ATOM      4  C3  UNK     1       1.860  33.584 236.477  1.00  0.00     0.052 C 
ATOM      5  C5  UNK     1      -0.833  34.066 237.261  1.00  0.00     0.018 C 
ATOM      6  C6  UNK     1       1.389  33.094 237.645  1.00  0.00     0.018 C 
ATOM      7  C10 UNK     1      -2.187  34.237 237.896  1.00  0.00     0.069 C 
ATOM      8  C12 UNK     1       2.193  32.318 238.654  1.00  0.00     0.069 C 
ATOM      9  H2  UNK     1      -0.256  32.921 238.874  1.00  0.00     0.165 HD
ENDROOT
BRANCH   2  10
ATOM     10  C4  UNK     1       0.825  33.531 234.219  1.00  0.00    -0.014 A 
ATOM     11  C7  UNK     1       1.027  34.066 232.942  1.00  0.00     0.092 A 
ATOM     12  N2  UNK     1       1.348  35.312 232.573  1.00  0.00    -0.239 N 
ATOM     13  C13 UNK     1       0.901  33.253 231.738  1.00  0.00     0.086 A 
ATOM     14  O4  UNK     1       1.423  35.291 231.192  1.00  0.00    -0.156 OA
ATOM     15  H2  UNK     1       1.505  36.114 233.185  1.00  0.00     0.197 HD
ATOM     16  N3  UNK     1       1.150  34.035 230.679  1.00  0.00    -0.240 N 
ATOM     17  H3  UNK     1       1.140  33.761 229.696  1.00  0.00     0.197 HD
ATOM     18  C15 UNK     1       0.570  31.887 231.783  1.00  0.00     0.034 A 
ATOM     19  C14 UNK     1       0.373  31.380 233.081  1.00  0.00     0.003 A 
ATOM     20  C9  UNK     1       0.496  32.171 234.253  1.00  0.00     0.011 A 
ENDBRANCH   2  10
BRANCH   3  21
ATOM     21  C8  UNK     1      -1.325  35.483 235.294  1.00  0.00     0.292 C 
ATOM     22  O3  UNK     1      -2.376  35.128 234.793  1.00  0.00    -0.259 OA
BRANCH  21  23
ATOM     23  O1  UNK     1      -0.750  36.709 235.256  1.00  0.00    -0.313 OA
BRANCH  23  24
ATOM     24  C16 UNK     1      -0.478  37.292 236.534  1.00  0.00     0.124 C 
ATOM     25  C17 UNK     1       0.940  37.844 236.541  1.00  0.00     0.040 C 
ATOM     26  C18 UNK     1      -1.509  38.373 236.822  1.00  0.00     0.040 C 
ENDBRANCH  23  24
ENDBRANCH  21  23
ENDBRANCH   3  21
BRANCH   4  27
ATOM     27  C11 UNK     1       3.282  33.491 236.105  1.00  0.00     0.291 C 
ATOM     28  O5  UNK     1       3.876  32.434 235.991  1.00  0.00    -0.260 OA
BRANCH  27  29
ATOM     29  O2  UNK     1       3.760  34.746 235.927  1.00  0.00    -0.323 OA
ATOM     30  C19 UNK     1       4.016  35.473 237.131  1.00  0.00     0.213 C 
ENDBRANCH  27  29
ENDBRANCH   4  27
TORSDOF 6
ENDMDL
MODEL 6
REMARK VINA RESULT:      -5.7      2.256      2.801
REMARK  6 active torsions:
REMARK  status: ('A' for Active; 'I' for Inactive)
REMARK    1  A    between atoms: O1_1  and  C8_18 
REMARK    2  A    between atoms: O1_1  and  C16_26 
REMARK    3  A    between atoms: O2_2  and  C11_21 
REMARK    4  A    between atoms: C1_11  and  C4_14 
REMARK    5  A    between atoms: C2_12  and  C8_18 
REMARK    6  A    between atoms: C3_13  and  C11_21 
ROOT
ATOM      1  N1  UNK     1      -0.417  36.381 236.603  1.00  0.00    -0.362 N 
ATOM      2  C1  UNK     1       0.910  33.950 237.200  1.00  0.00     0.103 C 
ATOM      3  C2  UNK     1       1.642  35.281 236.994  1.00  0.00     0.052 C 
ATOM      4  C3  UNK     1      -0.614  34.102 237.212  1.00  0.00     0.052 C 
ATOM      5  C5  UNK     1       0.965  36.414 236.696  1.00  0.00     0.018 C 
ATOM      6  C6  UNK     1      -1.203  35.277 236.893  1.00  0.00     0.018 C 
ATOM      7  C10 UNK     1       1.587  37.759 236.437  1.00  0.00     0.069 C 
ATOM      8  C12 UNK     1      -2.687  35.518 236.825  1.00  0.00     0.069 C 
ATOM      9  H2  UNK     1      -0.892  37.245 236.369  1.00  0.00     0.165 HD
ENDROOT
BRANCH   2  10
ATOM     10  C4  UNK     1       1.318  32.971 236.136  1.00  0.00    -0.014 A 
ATOM     11  C7  UNK     1       2.059  31.808 236.376  1.00  0.00     0.092 A 
ATOM     12  N2  UNK     1       2.546  31.321 237.524  1.00  0.00    -0.239 N 
ATOM     13  C13 UNK     1       2.426  30.894 235.301  1.00  0.00     0.086 A 
ATOM     14  O4  UNK     1       3.196  30.145 237.191  1.00  0.00    -0.156 OA
ATOM     15  H2  UNK     1       2.457  31.731 238.453  1.00  0.00     0.197 HD
ATOM     16  N3  UNK     1       3.125  29.883 235.834  1.00  0.00    -0.240 N 
ATOM     17  H3  UNK     1       3.523  29.083 235.341  1.00  0.00     0.197 HD
ATOM     18  C15 UNK     1       2.062  31.122 233.961  1.00  0.00     0.034 A 
ATOM     19  C14 UNK     1       1.320  32.299 233.754  1.00  0.00     0.003 A 
ATOM     20  C9  UNK     1       0.962  33.189 234.801  1.00  0.00     0.011 A 
ENDBRANCH   2  10
BRANCH   3  21
ATOM     21  C8  UNK     1       3.099  35.270 237.200  1.00  0.00     0.292 C 
ATOM     22  O3  UNK     1       3.905  35.347 236.291  1.00  0.00    -0.259 OA
BRANCH  21  23
ATOM     23  O1  UNK     1       3.342  35.163 238.530  1.00  0.00    -0.313 OA
BRANCH  23  24
ATOM     24  C16 UNK     1       4.442  35.942 239.010  1.00  0.00     0.124 C 
ATOM     25  C17 UNK     1       4.005  37.392 239.151  1.00  0.00     0.040 C 
ATOM     26  C18 UNK     1       4.927  35.364 240.331  1.00  0.00     0.040 C 
ENDBRANCH  23  24
ENDBRANCH  21  23
ENDBRANCH   3  21
BRANCH   4  27
ATOM     27  C11 UNK     1      -1.391  32.926 237.635  1.00  0.00     0.291 C 
ATOM     28  O5  UNK     1      -1.407  32.509 238.779  1.00  0.00    -0.260 OA
BRANCH  27  29
ATOM     29  O2  UNK     1      -2.044  32.433 236.554  1.00  0.00    -0.323 OA
ATOM     30  C19 UNK     1      -3.128  31.548 236.852  1.00  0.00     0.213 C 
ENDBRANCH  27  29
ENDBRANCH   4  27
TORSDOF 6
ENDMDL
MODEL 7
REMARK VINA RESULT:      -5.7      2.475      5.124
REMARK  6 active torsions:
REMARK  status: ('A' for Active; 'I' for Inactive)
REMARK    1  A    between atoms: O1_1  and  C8_18 
REMARK    2  A    between atoms: O1_1  and  C16_26 
REMARK    3  A    between atoms: O2_2  and  C11_21 
REMARK    4  A    between atoms: C1_11  and  C4_14 
REMARK    5  A    between atoms: C2_12  and  C8_18 
REMARK    6  A    between atoms: C3_13  and  C11_21 
ROOT
ATOM      1  N1  UNK     1      -0.416  36.923 234.867  1.00  0.00    -0.362 N 
ATOM      2  C1  UNK     1       1.574  34.908 234.766  1.00  0.00     0.103 C 
ATOM      3  C2  UNK     1       0.653  35.243 233.586  1.00  0.00     0.052 C 
ATOM      4  C3  UNK     1       1.418  35.879 235.940  1.00  0.00     0.052 C 
ATOM      5  C5  UNK     1      -0.293  36.205 233.688  1.00  0.00     0.018 C 
ATOM      6  C6  UNK     1       0.436  36.807 235.955  1.00  0.00     0.018 C 
ATOM      7  C10 UNK     1      -1.269  36.586 232.609  1.00  0.00     0.069 C 
ATOM      8  C12 UNK     1       0.164  37.772 237.078  1.00  0.00     0.069 C 
ATOM      9  H2  UNK     1      -1.140  37.630 234.912  1.00  0.00     0.165 HD
ENDROOT
BRANCH   2  10
ATOM     10  C4  UNK     1       1.322  33.501 235.228  1.00  0.00    -0.014 A 
ATOM     11  C7  UNK     1       2.323  32.543 235.424  1.00  0.00     0.092 A 
ATOM     12  N2  UNK     1       3.648  32.639 235.261  1.00  0.00    -0.239 N 
ATOM     13  C13 UNK     1       2.017  31.191 235.875  1.00  0.00     0.086 A 
ATOM     14  O4  UNK     1       4.162  31.399 235.595  1.00  0.00    -0.156 OA
ATOM     15  H2  UNK     1       4.172  33.459 234.953  1.00  0.00     0.197 HD
ATOM     16  N3  UNK     1       3.168  30.512 235.969  1.00  0.00    -0.240 N 
ATOM     17  H3  UNK     1       3.287  29.541 236.258  1.00  0.00     0.197 HD
ATOM     18  C15 UNK     1       0.702  30.765 236.140  1.00  0.00     0.034 A 
ATOM     19  C14 UNK     1      -0.280  31.750 235.932  1.00  0.00     0.003 A 
ATOM     20  C9  UNK     1       0.018  33.067 235.493  1.00  0.00     0.011 A 
ENDBRANCH   2  10
BRANCH   3  21
ATOM     21  C8  UNK     1       0.897  34.513 232.332  1.00  0.00     0.292 C 
ATOM     22  O3  UNK     1       1.617  34.929 231.444  1.00  0.00    -0.259 OA
BRANCH  21  23
ATOM     23  O1  UNK     1       0.195  33.353 232.369  1.00  0.00    -0.313 OA
BRANCH  23  24
ATOM     24  C16 UNK     1       0.653  32.339 231.470  1.00  0.00     0.124 C 
ATOM     25  C17 UNK     1       1.173  31.155 232.272  1.00  0.00     0.040 C 
ATOM     26  C18 UNK     1      -0.485  31.940 230.542  1.00  0.00     0.040 C 
ENDBRANCH  23  24
ENDBRANCH  21  23
ENDBRANCH   3  21
BRANCH   4  27
ATOM     27  C11 UNK     1       2.419  35.780 237.015  1.00  0.00     0.291 C 
ATOM     28  O5  UNK     1       2.252  35.124 238.027  1.00  0.00    -0.260 OA
BRANCH  27  29
ATOM     29  O2  UNK     1       3.497  36.524 236.665  1.00  0.00    -0.323 OA
ATOM     30  C19 UNK     1       3.922  37.474 237.647  1.00  0.00     0.213 C 
ENDBRANCH  27  29
ENDBRANCH   4  27
TORSDOF 6
ENDMDL
MODEL 8
REMARK VINA RESULT:      -5.6      2.990      5.794
REMARK  6 active torsions:
REMARK  status: ('A' for Active; 'I' for Inactive)
REMARK    1  A    between atoms: O1_1  and  C8_18 
REMARK    2  A    between atoms: O1_1  and  C16_26 
REMARK    3  A    between atoms: O2_2  and  C11_21 
REMARK    4  A    between atoms: C1_11  and  C4_14 
REMARK    5  A    between atoms: C2_12  and  C8_18 
REMARK    6  A    between atoms: C3_13  and  C11_21 
ROOT
ATOM      1  N1  UNK     1       1.622  32.156 233.775  1.00  0.00    -0.362 N 
ATOM      2  C1  UNK     1       0.612  34.472 232.495  1.00  0.00     0.103 C 
ATOM      3  C2  UNK     1       1.225  34.486 233.900  1.00  0.00     0.052 C 
ATOM      4  C3  UNK     1       0.751  33.117 231.796  1.00  0.00     0.052 C 
ATOM      5  C5  UNK     1       1.681  33.349 234.476  1.00  0.00     0.018 C 
ATOM      6  C6  UNK     1       1.214  32.032 232.456  1.00  0.00     0.018 C 
ATOM      7  C10 UNK     1       2.264  33.246 235.859  1.00  0.00     0.069 C 
ATOM      8  C12 UNK     1       1.341  30.648 231.880  1.00  0.00     0.069 C 
ATOM      9  H2  UNK     1       1.965  31.322 234.239  1.00  0.00     0.165 HD
ENDROOT
BRANCH   2  10
ATOM     10  C4  UNK     1      -0.836  34.867 232.565  1.00  0.00    -0.014 A 
ATOM     11  C7  UNK     1      -1.457  35.752 231.677  1.00  0.00     0.092 A 
ATOM     12  N2  UNK     1      -0.951  36.412 230.628  1.00  0.00    -0.239 N 
ATOM     13  C13 UNK     1      -2.869  36.097 231.794  1.00  0.00     0.086 A 
ATOM     14  O4  UNK     1      -2.000  37.147 230.101  1.00  0.00    -0.156 OA
ATOM     15  H2  UNK     1       0.010  36.381 230.286  1.00  0.00     0.197 HD
ATOM     16  N3  UNK     1      -3.171  36.956 230.813  1.00  0.00    -0.240 N 
ATOM     17  H3  UNK     1      -4.079  37.383 230.627  1.00  0.00     0.197 HD
ATOM     18  C15 UNK     1      -3.692  35.565 232.804  1.00  0.00     0.034 A 
ATOM     19  C14 UNK     1      -3.038  34.680 233.680  1.00  0.00     0.003 A 
ATOM     20  C9  UNK     1      -1.663  34.344 233.565  1.00  0.00     0.011 A 
ENDBRANCH   2  10
BRANCH   3  21
ATOM     21  C8  UNK     1       1.347  35.799 234.553  1.00  0.00     0.292 C 
ATOM     22  O3  UNK     1       1.980  36.725 234.082  1.00  0.00    -0.259 OA
BRANCH  21  23
ATOM     23  O1  UNK     1       0.652  35.765 235.717  1.00  0.00    -0.313 OA
BRANCH  23  24
ATOM     24  C16 UNK     1      -0.071  36.960 236.027  1.00  0.00     0.124 C 
ATOM     25  C17 UNK     1      -1.490  36.596 236.437  1.00  0.00     0.040 C 
ATOM     26  C18 UNK     1       0.661  37.717 237.126  1.00  0.00     0.040 C 
ENDBRANCH  23  24
ENDBRANCH  21  23
ENDBRANCH   3  21
BRANCH   4  27
ATOM     27  C11 UNK     1       0.405  33.074 230.365  1.00  0.00     0.291 C 
ATOM     28  O5  UNK     1      -0.442  32.332 229.903  1.00  0.00    -0.260 OA
BRANCH  27  29
ATOM     29  O2  UNK     1       1.178  33.976 229.712  1.00  0.00    -0.323 OA
ATOM     30  C19 UNK     1       0.925  34.087 228.308  1.00  0.00     0.213 C 
ENDBRANCH  27  29
ENDBRANCH   4  27
TORSDOF 6
ENDMDL
MODEL 9
REMARK VINA RESULT:      -5.6      2.173      4.975
REMARK  6 active torsions:
REMARK  status: ('A' for Active; 'I' for Inactive)
REMARK    1  A    between atoms: O1_1  and  C8_18 
REMARK    2  A    between atoms: O1_1  and  C16_26 
REMARK    3  A    between atoms: O2_2  and  C11_21 
REMARK    4  A    between atoms: C1_11  and  C4_14 
REMARK    5  A    between atoms: C2_12  and  C8_18 
REMARK    6  A    between atoms: C3_13  and  C11_21 
ROOT
ATOM      1  N1  UNK     1      -0.599  36.949 235.146  1.00  0.00    -0.362 N 
ATOM      2  C1  UNK     1       1.749  35.382 234.911  1.00  0.00     0.103 C 
ATOM      3  C2  UNK     1       0.679  35.465 233.817  1.00  0.00     0.052 C 
ATOM      4  C3  UNK     1       1.498  36.355 236.067  1.00  0.00     0.052 C 
ATOM      5  C5  UNK     1      -0.434  36.217 233.981  1.00  0.00     0.018 C 
ATOM      6  C6  UNK     1       0.349  37.062 236.151  1.00  0.00     0.018 C 
ATOM      7  C10 UNK     1      -1.559  36.338 232.990  1.00  0.00     0.069 C 
ATOM      8  C12 UNK     1      -0.017  38.002 237.267  1.00  0.00     0.069 C 
ATOM      9  H2  UNK     1      -1.448  37.494 235.240  1.00  0.00     0.165 HD
ENDROOT
BRANCH   2  10
ATOM     10  C4  UNK     1       1.838  33.976 235.434  1.00  0.00    -0.014 A 
ATOM     11  C7  UNK     1       0.770  33.280 236.011  1.00  0.00     0.092 A 
ATOM     12  N2  UNK     1      -0.494  33.666 236.222  1.00  0.00    -0.239 N 
ATOM     13  C13 UNK     1       0.916  31.915 236.502  1.00  0.00     0.086 A 
ATOM     14  O4  UNK     1      -1.125  32.590 236.821  1.00  0.00    -0.156 OA
ATOM     15  H2  UNK     1      -0.909  34.569 235.988  1.00  0.00     0.197 HD
ATOM     16  N3  UNK     1      -0.265  31.519 236.993  1.00  0.00    -0.240 N 
ATOM     17  H3  UNK     1      -0.486  30.615 237.410  1.00  0.00     0.197 HD
ATOM     18  C15 UNK     1       2.135  31.215 236.427  1.00  0.00     0.034 A 
ATOM     19  C14 UNK     1       3.187  31.942 235.843  1.00  0.00     0.003 A 
ATOM     20  C9  UNK     1       3.045  33.272 235.366  1.00  0.00     0.011 A 
ENDBRANCH   2  10
BRANCH   3  21
ATOM     21  C8  UNK     1       0.958  34.742 232.566  1.00  0.00     0.292 C 
ATOM     22  O3  UNK     1       1.661  35.187 231.677  1.00  0.00    -0.259 OA
BRANCH  21  23
ATOM     23  O1  UNK     1       0.311  33.552 232.605  1.00  0.00    -0.313 OA
BRANCH  23  24
ATOM     24  C16 UNK     1       0.933  32.497 231.866  1.00  0.00     0.124 C 
ATOM     25  C17 UNK     1       1.149  31.302 232.781  1.00  0.00     0.040 C 
ATOM     26  C18 UNK     1       0.064  32.144 230.667  1.00  0.00     0.040 C 
ENDBRANCH  23  24
ENDBRANCH  21  23
ENDBRANCH   3  21
BRANCH   4  27
ATOM     27  C11 UNK     1       2.589  36.514 237.044  1.00  0.00     0.291 C 
ATOM     28  O5  UNK     1       3.474  37.341 236.930  1.00  0.00    -0.260 OA
BRANCH  27  29
ATOM     29  O2  UNK     1       2.412  35.604 238.033  1.00  0.00    -0.323 OA
ATOM     30  C19 UNK     1       3.618  35.082 238.599  1.00  0.00     0.213 C 
ENDBRANCH  27  29
ENDBRANCH   4  27
TORSDOF 6
ENDMDL
