MODEL 1
REMARK VINA RESULT:      -4.5      0.000      0.000
REMARK  1 active torsions:
REMARK  status: ('A' for Active; 'I' for Inactive)
REMARK    1  A    between atoms: N1_1  and  C2_3 
ROOT
ATOM      1  C1  UNK     1       1.879  35.758 236.981  1.00  0.00    -0.008 C 
ATOM      2  C2  UNK     1       2.602  34.621 237.828  1.00  0.00     0.164 C 
ATOM      3  C3  UNK     1       2.560  35.587 235.576  1.00  0.00    -0.004 C 
ATOM      4  C4  UNK     1       3.555  33.980 236.761  1.00  0.00     0.025 C 
ATOM      5  C5  UNK     1       3.997  35.199 235.944  1.00  0.00     0.012 C 
ATOM      6  C6  UNK     1       2.111  34.301 234.857  1.00  0.00     0.006 C 
ATOM      7  C7  UNK     1       2.782  33.195 235.679  1.00  0.00     0.007 C 
ATOM      8  C8  UNK     1       0.343  35.631 236.904  1.00  0.00     0.018 C 
ATOM      9  C9  UNK     1       2.149  37.194 237.495  1.00  0.00     0.018 C 
ATOM     10  C10 UNK     1       3.444  35.135 239.016  1.00  0.00     0.050 C 
ENDROOT
BRANCH   2  11
ATOM     11  N1  UNK     1       1.711  33.623 238.429  1.00  0.00     0.089 N 
ATOM     12  C11 UNK     1       2.442  32.779 239.359  1.00  0.00     0.307 C 
ATOM     13  H18 UNK     1       1.283  33.043 237.712  1.00  0.00     0.316 HD
ENDBRANCH   2  11
TORSDOF 1
ENDMDL
MODEL 2
REMARK VINA RESULT:      -4.5      1.236      3.252
REMARK  1 active torsions:
REMARK  status: ('A' for Active; 'I' for Inactive)
REMARK    1  A    between atoms: N1_1  and  C2_3 
ROOT
ATOM      1  C1  UNK     1       2.058  35.177 235.679  1.00  0.00    -0.008 C 
ATOM      2  C2  UNK     1       1.180  34.952 236.987  1.00  0.00     0.164 C 
ATOM      3  C3  UNK     1       1.474  36.530 235.135  1.00  0.00    -0.004 C 
ATOM      4  C4  UNK     1       0.261  36.223 236.982  1.00  0.00     0.025 C 
ATOM      5  C5  UNK     1      -0.014  36.420 235.487  1.00  0.00     0.012 C 
ATOM      6  C6  UNK     1       1.868  37.734 236.011  1.00  0.00     0.006 C 
ATOM      7  C7  UNK     1       1.046  37.517 237.286  1.00  0.00     0.007 C 
ATOM      8  C8  UNK     1       3.579  35.256 235.926  1.00  0.00     0.018 C 
ATOM      9  C9  UNK     1       1.871  34.083 234.600  1.00  0.00     0.018 C 
ATOM     10  C10 UNK     1       0.295  33.687 236.964  1.00  0.00     0.050 C 
ENDROOT
BRANCH   2  11
ATOM     11  N1  UNK     1       1.936  34.835 238.239  1.00  0.00     0.089 N 
ATOM     12  C11 UNK     1       2.157  33.438 238.574  1.00  0.00     0.307 C 
ATOM     13  H18 UNK     1       1.443  35.291 239.002  1.00  0.00     0.316 HD
ENDBRANCH   2  11
TORSDOF 1
ENDMDL
MODEL 3
REMARK VINA RESULT:      -4.5      1.655      3.824
REMARK  1 active torsions:
REMARK  status: ('A' for Active; 'I' for Inactive)
REMARK    1  A    between atoms: N1_1  and  C2_3 
ROOT
ATOM      1  C1  UNK     1       1.838  34.986 236.475  1.00  0.00    -0.008 C 
ATOM      2  C2  UNK     1       0.339  35.331 236.068  1.00  0.00     0.164 C 
ATOM      3  C3  UNK     1       2.522  36.397 236.386  1.00  0.00    -0.004 C 
ATOM      4  C4  UNK     1       0.415  36.880 235.837  1.00  0.00     0.025 C 
ATOM      5  C5  UNK     1       1.799  37.047 235.200  1.00  0.00     0.012 C 
ATOM      6  C6  UNK     1       2.078  37.339 237.520  1.00  0.00     0.006 C 
ATOM      7  C7  UNK     1       0.626  37.660 237.152  1.00  0.00     0.007 C 
ATOM      8  C8  UNK     1       1.999  34.347 237.871  1.00  0.00     0.018 C 
ATOM      9  C9  UNK     1       2.550  34.022 235.496  1.00  0.00     0.018 C 
ATOM     10  C10 UNK     1      -0.154  34.649 234.772  1.00  0.00     0.050 C 
ENDROOT
BRANCH   2  11
ATOM     11  N1  UNK     1      -0.680  34.981 237.063  1.00  0.00     0.089 N 
ATOM     12  C11 UNK     1      -2.012  35.091 236.493  1.00  0.00     0.307 C 
ATOM     13  H18 UNK     1      -0.611  35.585 237.878  1.00  0.00     0.316 HD
ENDBRANCH   2  11
TORSDOF 1
ENDMDL
MODEL 4
REMARK VINA RESULT:      -4.5      1.195      1.980
REMARK  1 active torsions:
REMARK  status: ('A' for Active; 'I' for Inactive)
REMARK    1  A    between atoms: N1_1  and  C2_3 
ROOT
ATOM      1  C1  UNK     1       0.322  36.208 236.392  1.00  0.00    -0.008 C 
ATOM      2  C2  UNK     1       1.760  35.917 237.010  1.00  0.00     0.164 C 
ATOM      3  C3  UNK     1       0.580  35.961 234.862  1.00  0.00    -0.004 C 
ATOM      4  C4  UNK     1       2.588  35.533 235.735  1.00  0.00     0.025 C 
ATOM      5  C5  UNK     1       2.012  36.478 234.675  1.00  0.00     0.012 C 
ATOM      6  C6  UNK     1       0.789  34.470 234.534  1.00  0.00     0.006 C 
ATOM      7  C7  UNK     1       2.162  34.172 235.145  1.00  0.00     0.007 C 
ATOM      8  C8  UNK     1      -0.811  35.317 236.943  1.00  0.00     0.018 C 
ATOM      9  C9  UNK     1      -0.165  37.664 236.587  1.00  0.00     0.018 C 
ATOM     10  C10 UNK     1       2.424  37.128 237.700  1.00  0.00     0.050 C 
ENDROOT
BRANCH   2  11
ATOM     11  N1  UNK     1       1.806  34.860 238.026  1.00  0.00     0.089 N 
ATOM     12  C11 UNK     1       3.117  34.806 238.649  1.00  0.00     0.307 C 
ATOM     13  H18 UNK     1       1.590  33.955 237.614  1.00  0.00     0.316 HD
ENDBRANCH   2  11
TORSDOF 1
ENDMDL
MODEL 5
REMARK VINA RESULT:      -4.5      2.573      4.413
REMARK  1 active torsions:
REMARK  status: ('A' for Active; 'I' for Inactive)
REMARK    1  A    between atoms: N1_1  and  C2_3 
ROOT
ATOM      1  C1  UNK     1       0.203  35.168 236.039  1.00  0.00    -0.008 C 
ATOM      2  C2  UNK     1       0.583  35.899 234.677  1.00  0.00     0.164 C 
ATOM      3  C3  UNK     1       1.361  35.647 236.987  1.00  0.00    -0.004 C 
ATOM      4  C4  UNK     1       1.876  36.687 235.082  1.00  0.00     0.025 C 
ATOM      5  C5  UNK     1       2.566  35.710 236.041  1.00  0.00     0.012 C 
ATOM      6  C6  UNK     1       1.237  37.135 237.362  1.00  0.00     0.006 C 
ATOM      7  C7  UNK     1       1.577  37.851 236.051  1.00  0.00     0.007 C 
ATOM      8  C8  UNK     1      -1.191  35.522 236.597  1.00  0.00     0.018 C 
ATOM      9  C9  UNK     1       0.234  33.623 235.954  1.00  0.00     0.018 C 
ATOM     10  C10 UNK     1       0.913  34.951 233.504  1.00  0.00     0.050 C 
ENDROOT
BRANCH   2  11
ATOM     11  N1  UNK     1      -0.448  36.791 234.134  1.00  0.00     0.089 N 
ATOM     12  C11 UNK     1      -0.962  36.274 232.878  1.00  0.00     0.307 C 
ATOM     13  H18 UNK     1      -0.074  37.725 233.987  1.00  0.00     0.316 HD
ENDBRANCH   2  11
TORSDOF 1
ENDMDL
MODEL 6
REMARK VINA RESULT:      -4.4      1.781      3.537
REMARK  1 active torsions:
REMARK  status: ('A' for Active; 'I' for Inactive)
REMARK    1  A    between atoms: N1_1  and  C2_3 
ROOT
ATOM      1  C1  UNK     1       1.383  35.445 236.860  1.00  0.00    -0.008 C 
ATOM      2  C2  UNK     1       2.255  35.178 235.556  1.00  0.00     0.164 C 
ATOM      3  C3  UNK     1       2.416  35.130 238.001  1.00  0.00    -0.004 C 
ATOM      4  C4  UNK     1       3.641  34.778 236.170  1.00  0.00     0.025 C 
ATOM      5  C5  UNK     1       3.229  33.973 237.407  1.00  0.00     0.012 C 
ATOM      6  C6  UNK     1       3.516  36.201 238.111  1.00  0.00     0.006 C 
ATOM      7  C7  UNK     1       4.351  35.970 236.847  1.00  0.00     0.007 C 
ATOM      8  C8  UNK     1       0.808  36.873 236.973  1.00  0.00     0.018 C 
ATOM      9  C9  UNK     1       0.168  34.498 237.010  1.00  0.00     0.018 C 
ATOM     10  C10 UNK     1       1.746  34.027 234.661  1.00  0.00     0.050 C 
ENDROOT
BRANCH   2  11
ATOM     11  N1  UNK     1       2.378  36.316 234.637  1.00  0.00     0.089 N 
ATOM     12  C11 UNK     1       1.613  36.079 233.425  1.00  0.00     0.307 C 
ATOM     13  H18 UNK     1       3.351  36.480 234.396  1.00  0.00     0.316 HD
ENDBRANCH   2  11
TORSDOF 1
ENDMDL
MODEL 7
REMARK VINA RESULT:      -4.4      1.910      3.619
REMARK  1 active torsions:
REMARK  status: ('A' for Active; 'I' for Inactive)
REMARK    1  A    between atoms: N1_1  and  C2_3 
ROOT
ATOM      1  C1  UNK     1       1.536  35.253 235.002  1.00  0.00    -0.008 C 
ATOM      2  C2  UNK     1       2.359  35.676 236.297  1.00  0.00     0.164 C 
ATOM      3  C3  UNK     1       0.057  35.368 235.516  1.00  0.00    -0.004 C 
ATOM      4  C4  UNK     1       1.214  35.983 237.322  1.00  0.00     0.025 C 
ATOM      5  C5  UNK     1       0.172  34.913 236.976  1.00  0.00     0.012 C 
ATOM      6  C6  UNK     1      -0.381  36.830 235.725  1.00  0.00     0.006 C 
ATOM      7  C7  UNK     1       0.424  37.258 236.957  1.00  0.00     0.007 C 
ATOM      8  C8  UNK     1       1.791  36.129 233.757  1.00  0.00     0.018 C 
ATOM      9  C9  UNK     1       1.793  33.797 234.541  1.00  0.00     0.018 C 
ATOM     10  C10 UNK     1       3.273  34.573 236.873  1.00  0.00     0.050 C 
ENDROOT
BRANCH   2  11
ATOM     11  N1  UNK     1       3.255  36.826 236.124  1.00  0.00     0.089 N 
ATOM     12  C11 UNK     1       4.052  37.036 237.320  1.00  0.00     0.307 C 
ATOM     13  H18 UNK     1       2.724  37.668 235.919  1.00  0.00     0.316 HD
ENDBRANCH   2  11
TORSDOF 1
ENDMDL
MODEL 8
REMARK VINA RESULT:      -4.3      1.545      3.116
REMARK  1 active torsions:
REMARK  status: ('A' for Active; 'I' for Inactive)
REMARK    1  A    between atoms: N1_1  and  C2_3 
ROOT
ATOM      1  C1  UNK     1       1.721  35.336 235.144  1.00  0.00    -0.008 C 
ATOM      2  C2  UNK     1       1.322  36.217 236.408  1.00  0.00     0.164 C 
ATOM      3  C3  UNK     1       2.982  34.568 235.679  1.00  0.00    -0.004 C 
ATOM      4  C4  UNK     1       2.406  35.788 237.456  1.00  0.00     0.025 C 
ATOM      5  C5  UNK     1       3.652  35.611 236.582  1.00  0.00     0.012 C 
ATOM      6  C6  UNK     1       2.618  33.500 236.727  1.00  0.00     0.006 C 
ATOM      7  C7  UNK     1       2.209  34.336 237.944  1.00  0.00     0.007 C 
ATOM      8  C8  UNK     1       0.619  34.375 234.650  1.00  0.00     0.018 C 
ATOM      9  C9  UNK     1       2.131  36.166 233.903  1.00  0.00     0.018 C 
ATOM     10  C10 UNK     1       1.407  37.743 236.187  1.00  0.00     0.050 C 
ENDROOT
BRANCH   2  11
ATOM     11  N1  UNK     1      -0.038  36.007 236.917  1.00  0.00     0.089 N 
ATOM     12  C11 UNK     1      -0.901  37.114 236.543  1.00  0.00     0.307 C 
ATOM     13  H18 UNK     1      -0.033  35.910 237.929  1.00  0.00     0.316 HD
ENDBRANCH   2  11
TORSDOF 1
ENDMDL
MODEL 9
REMARK VINA RESULT:      -4.3      1.814      3.487
REMARK  1 active torsions:
REMARK  status: ('A' for Active; 'I' for Inactive)
REMARK    1  A    between atoms: N1_1  and  C2_3 
ROOT
ATOM      1  C1  UNK     1       0.953  35.611 235.013  1.00  0.00    -0.008 C 
ATOM      2  C2  UNK     1       0.158  35.793 236.380  1.00  0.00     0.164 C 
ATOM      3  C3  UNK     1       2.207  36.526 235.254  1.00  0.00    -0.004 C 
ATOM      4  C4  UNK     1       1.101  36.760 237.177  1.00  0.00     0.025 C 
ATOM      5  C5  UNK     1       1.627  37.684 236.073  1.00  0.00     0.012 C 
ATOM      6  C6  UNK     1       3.181  35.928 236.287  1.00  0.00     0.006 C 
ATOM      7  C7  UNK     1       2.416  36.076 237.606  1.00  0.00     0.007 C 
ATOM      8  C8  UNK     1       1.347  34.157 234.682  1.00  0.00     0.018 C 
ATOM      9  C9  UNK     1       0.190  36.127 233.768  1.00  0.00     0.018 C 
ATOM     10  C10 UNK     1      -1.234  36.446 236.238  1.00  0.00     0.050 C 
ENDROOT
BRANCH   2  11
ATOM     11  N1  UNK     1      -0.104  34.556 237.124  1.00  0.00     0.089 N 
ATOM     12  C11 UNK     1      -1.533  34.310 237.221  1.00  0.00     0.307 C 
ATOM     13  H18 UNK     1       0.294  34.606 238.058  1.00  0.00     0.316 HD
ENDBRANCH   2  11
TORSDOF 1
ENDMDL
