MODEL 1
REMARK VINA RESULT:      -5.0      0.000      0.000
REMARK  4 active torsions:
REMARK  status: ('A' for Active; 'I' for Inactive)
REMARK    1  A    between atoms: O1_1  and  C7_10 
REMARK    2  A    between atoms: O1_1  and  C14_17 
REMARK    3  A    between atoms: C1_4  and  C6_9 
REMARK    4  A    between atoms: C1_4  and  C7_10 
ROOT
ATOM      1  N1  UNK     1       3.016  36.729 237.762  1.00  0.00     0.084 N 
ATOM      2  C1  UNK     1       0.637  35.381 236.566  1.00  0.00     0.078 C 
ATOM      3  C2  UNK     1       1.668  34.681 237.491  1.00  0.00     0.055 C 
ATOM      4  C3  UNK     1       0.693  36.895 236.910  1.00  0.00     0.055 C 
ATOM      5  C4  UNK     1       3.062  35.309 237.398  1.00  0.00     0.273 C 
ATOM      6  C5  UNK     1       2.113  37.475 236.877  1.00  0.00     0.273 C 
ATOM      7  C8  UNK     1       4.358  37.311 237.735  1.00  0.00     0.309 C 
ENDROOT
BRANCH   2   8
ATOM      8  C6  UNK     1       0.836  35.020 235.086  1.00  0.00    -0.040 A 
ATOM      9  C9  UNK     1       1.017  36.030 234.145  1.00  0.00     0.008 A 
ATOM     10  C11 UNK     1       1.199  35.703 232.802  1.00  0.00     0.001 A 
ATOM     11  C13 UNK     1       1.198  34.366 232.404  1.00  0.00     0.000 A 
ATOM     12  C12 UNK     1       1.017  33.357 233.350  1.00  0.00     0.001 A 
ATOM     13  C10 UNK     1       0.835  33.685 234.693  1.00  0.00     0.008 A 
ENDBRANCH   2   8
BRANCH   2  14
ATOM     14  C7  UNK     1      -0.744  34.910 236.968  1.00  0.00     0.272 C 
ATOM     15  O2  UNK     1      -0.956  33.925 237.665  1.00  0.00    -0.264 OA
BRANCH  14  16
ATOM     16  O1  UNK     1      -1.683  35.742 236.437  1.00  0.00    -0.321 OA
BRANCH  16  17
ATOM     17  C14 UNK     1      -2.818  35.095 235.850  1.00  0.00     0.174 C 
ATOM     18  C15 UNK     1      -2.723  35.204 234.344  1.00  0.00     0.034 C 
ENDBRANCH  16  17
ENDBRANCH  14  16
ENDBRANCH   2  14
TORSDOF 4
ENDMDL
MODEL 2
REMARK VINA RESULT:      -5.0      1.976      3.721
REMARK  4 active torsions:
REMARK  status: ('A' for Active; 'I' for Inactive)
REMARK    1  A    between atoms: O1_1  and  C7_10 
REMARK    2  A    between atoms: O1_1  and  C14_17 
REMARK    3  A    between atoms: C1_4  and  C6_9 
REMARK    4  A    between atoms: C1_4  and  C7_10 
ROOT
ATOM      1  N1  UNK     1       3.753  36.440 238.063  1.00  0.00     0.084 N 
ATOM      2  C1  UNK     1       1.868  35.713 235.866  1.00  0.00     0.078 C 
ATOM      3  C2  UNK     1       2.226  37.169 236.268  1.00  0.00     0.055 C 
ATOM      4  C3  UNK     1       3.065  34.827 236.310  1.00  0.00     0.055 C 
ATOM      5  C4  UNK     1       2.603  37.294 237.748  1.00  0.00     0.273 C 
ATOM      6  C5  UNK     1       3.462  35.030 237.778  1.00  0.00     0.273 C 
ATOM      7  C8  UNK     1       4.152  36.610 239.460  1.00  0.00     0.309 C 
ENDROOT
BRANCH   2   8
ATOM      8  C6  UNK     1       0.486  35.284 236.382  1.00  0.00    -0.040 A 
ATOM      9  C9  UNK     1       0.344  34.074 237.056  1.00  0.00     0.008 A 
ATOM     10  C11 UNK     1      -0.910  33.684 237.525  1.00  0.00     0.001 A 
ATOM     11  C13 UNK     1      -2.018  34.507 237.319  1.00  0.00     0.000 A 
ATOM     12  C12 UNK     1      -1.871  35.720 236.645  1.00  0.00     0.001 A 
ATOM     13  C10 UNK     1      -0.616  36.108 236.176  1.00  0.00     0.008 A 
ENDBRANCH   2   8
BRANCH   2  14
ATOM     14  C7  UNK     1       1.832  35.644 234.355  1.00  0.00     0.272 C 
ATOM     15  O2  UNK     1       1.936  36.619 233.622  1.00  0.00    -0.264 OA
BRANCH  14  16
ATOM     16  O1  UNK     1       1.666  34.350 233.961  1.00  0.00    -0.321 OA
BRANCH  16  17
ATOM     17  C14 UNK     1       0.835  34.158 232.812  1.00  0.00     0.174 C 
ATOM     18  C15 UNK     1      -0.545  33.731 233.266  1.00  0.00     0.034 C 
ENDBRANCH  16  17
ENDBRANCH  14  16
ENDBRANCH   2  14
TORSDOF 4
ENDMDL
MODEL 3
REMARK VINA RESULT:      -5.0      2.303      4.218
REMARK  4 active torsions:
REMARK  status: ('A' for Active; 'I' for Inactive)
REMARK    1  A    between atoms: O1_1  and  C7_10 
REMARK    2  A    between atoms: O1_1  and  C14_17 
REMARK    3  A    between atoms: C1_4  and  C6_9 
REMARK    4  A    between atoms: C1_4  and  C7_10 
ROOT
ATOM      1  N1  UNK     1      -1.216  35.423 236.772  1.00  0.00     0.084 N 
ATOM      2  C1  UNK     1       1.387  34.821 235.443  1.00  0.00     0.078 C 
ATOM      3  C2  UNK     1       0.853  36.253 235.716  1.00  0.00     0.055 C 
ATOM      4  C3  UNK     1       0.714  33.893 236.491  1.00  0.00     0.055 C 
ATOM      5  C4  UNK     1      -0.678  36.314 235.739  1.00  0.00     0.273 C 
ATOM      6  C5  UNK     1      -0.813  34.032 236.536  1.00  0.00     0.273 C 
ATOM      7  C8  UNK     1      -2.674  35.532 236.836  1.00  0.00     0.309 C 
ENDROOT
BRANCH   2   8
ATOM      8  C6  UNK     1       1.225  34.406 233.973  1.00  0.00    -0.040 A 
ATOM      9  C9  UNK     1       1.383  35.353 232.965  1.00  0.00     0.008 A 
ATOM     10  C11 UNK     1       1.237  34.976 231.630  1.00  0.00     0.001 A 
ATOM     11  C13 UNK     1       0.933  33.653 231.308  1.00  0.00     0.000 A 
ATOM     12  C12 UNK     1       0.776  32.707 232.321  1.00  0.00     0.001 A 
ATOM     13  C10 UNK     1       0.922  33.085 233.655  1.00  0.00     0.008 A 
ENDBRANCH   2   8
BRANCH   2  14
ATOM     14  C7  UNK     1       2.867  34.810 235.760  1.00  0.00     0.272 C 
ATOM     15  O2  UNK     1       3.574  33.813 235.700  1.00  0.00    -0.264 OA
BRANCH  14  16
ATOM     16  O1  UNK     1       3.267  36.064 236.115  1.00  0.00    -0.321 OA
BRANCH  16  17
ATOM     17  C14 UNK     1       4.135  36.135 237.251  1.00  0.00     0.174 C 
ATOM     18  C15 UNK     1       4.187  37.566 237.743  1.00  0.00     0.034 C 
ENDBRANCH  16  17
ENDBRANCH  14  16
ENDBRANCH   2  14
TORSDOF 4
ENDMDL
MODEL 4
REMARK VINA RESULT:      -5.0      3.268      5.106
REMARK  4 active torsions:
REMARK  status: ('A' for Active; 'I' for Inactive)
REMARK    1  A    between atoms: O1_1  and  C7_10 
REMARK    2  A    between atoms: O1_1  and  C14_17 
REMARK    3  A    between atoms: C1_4  and  C6_9 
REMARK    4  A    between atoms: C1_4  and  C7_10 
ROOT
ATOM      1  N1  UNK     1      -0.358  33.178 236.014  1.00  0.00     0.084 N 
ATOM      2  C1  UNK     1       2.479  34.008 236.425  1.00  0.00     0.078 C 
ATOM      3  C2  UNK     1       1.724  34.105 235.072  1.00  0.00     0.055 C 
ATOM      4  C3  UNK     1       1.395  34.046 237.537  1.00  0.00     0.055 C 
ATOM      5  C4  UNK     1       0.626  33.046 234.935  1.00  0.00     0.273 C 
ATOM      6  C5  UNK     1       0.273  33.021 237.329  1.00  0.00     0.273 C 
ATOM      7  C8  UNK     1      -1.440  32.208 235.844  1.00  0.00     0.309 C 
ENDROOT
BRANCH   2   8
ATOM      8  C6  UNK     1       3.449  32.817 236.471  1.00  0.00    -0.040 A 
ATOM      9  C9  UNK     1       3.633  32.031 235.337  1.00  0.00     0.008 A 
ATOM     10  C11 UNK     1       4.513  30.950 235.378  1.00  0.00     0.001 A 
ATOM     11  C13 UNK     1       5.207  30.659 236.553  1.00  0.00     0.000 A 
ATOM     12  C12 UNK     1       5.020  31.450 237.687  1.00  0.00     0.001 A 
ATOM     13  C10 UNK     1       4.140  32.531 237.645  1.00  0.00     0.008 A 
ENDBRANCH   2   8
BRANCH   2  14
ATOM     14  C7  UNK     1       3.298  35.270 236.591  1.00  0.00     0.272 C 
ATOM     15  O2  UNK     1       4.342  35.494 235.993  1.00  0.00    -0.264 OA
BRANCH  14  16
ATOM     16  O1  UNK     1       2.693  36.089 237.498  1.00  0.00    -0.321 OA
BRANCH  16  17
ATOM     17  C14 UNK     1       2.497  37.441 237.070  1.00  0.00     0.174 C 
ATOM     18  C15 UNK     1       1.015  37.750 237.075  1.00  0.00     0.034 C 
ENDBRANCH  16  17
ENDBRANCH  14  16
ENDBRANCH   2  14
TORSDOF 4
ENDMDL
MODEL 5
REMARK VINA RESULT:      -4.9      2.504      4.842
REMARK  4 active torsions:
REMARK  status: ('A' for Active; 'I' for Inactive)
REMARK    1  A    between atoms: O1_1  and  C7_10 
REMARK    2  A    between atoms: O1_1  and  C14_17 
REMARK    3  A    between atoms: C1_4  and  C6_9 
REMARK    4  A    between atoms: C1_4  and  C7_10 
ROOT
ATOM      1  N1  UNK     1       0.966  33.379 232.003  1.00  0.00     0.084 N 
ATOM      2  C1  UNK     1       1.226  34.874 234.572  1.00  0.00     0.078 C 
ATOM      3  C2  UNK     1       1.790  33.449 234.326  1.00  0.00     0.055 C 
ATOM      4  C3  UNK     1       1.129  35.555 233.180  1.00  0.00     0.055 C 
ATOM      5  C4  UNK     1       0.981  32.669 233.285  1.00  0.00     0.273 C 
ATOM      6  C5  UNK     1       0.373  34.714 232.142  1.00  0.00     0.273 C 
ATOM      7  C8  UNK     1       0.247  32.601 230.993  1.00  0.00     0.309 C 
ENDROOT
BRANCH   2   8
ATOM      8  C6  UNK     1      -0.064  34.858 235.406  1.00  0.00    -0.040 A 
ATOM      9  C9  UNK     1      -1.204  35.500 234.929  1.00  0.00     0.008 A 
ATOM     10  C11 UNK     1      -2.376  35.486 235.685  1.00  0.00     0.001 A 
ATOM     11  C13 UNK     1      -2.403  34.830 236.916  1.00  0.00     0.000 A 
ATOM     12  C12 UNK     1      -1.259  34.188 237.390  1.00  0.00     0.001 A 
ATOM     13  C10 UNK     1      -0.088  34.203 236.634  1.00  0.00     0.008 A 
ENDBRANCH   2   8
BRANCH   2  14
ATOM     14  C7  UNK     1       2.263  35.656 235.351  1.00  0.00     0.272 C 
ATOM     15  O2  UNK     1       3.260  35.157 235.856  1.00  0.00    -0.264 OA
BRANCH  14  16
ATOM     16  O1  UNK     1       1.905  36.970 235.394  1.00  0.00    -0.321 OA
BRANCH  16  17
ATOM     17  C14 UNK     1       2.018  37.597 236.676  1.00  0.00     0.174 C 
ATOM     18  C15 UNK     1       0.631  37.830 237.235  1.00  0.00     0.034 C 
ENDBRANCH  16  17
ENDBRANCH  14  16
ENDBRANCH   2  14
TORSDOF 4
ENDMDL
MODEL 6
REMARK VINA RESULT:      -4.9      1.991      3.753
REMARK  4 active torsions:
REMARK  status: ('A' for Active; 'I' for Inactive)
REMARK    1  A    between atoms: O1_1  and  C7_10 
REMARK    2  A    between atoms: O1_1  and  C14_17 
REMARK    3  A    between atoms: C1_4  and  C6_9 
REMARK    4  A    between atoms: C1_4  and  C7_10 
ROOT
ATOM      1  N1  UNK     1       3.876  34.645 238.326  1.00  0.00     0.084 N 
ATOM      2  C1  UNK     1       1.933  34.858 236.071  1.00  0.00     0.078 C 
ATOM      3  C2  UNK     1       3.334  35.528 236.088  1.00  0.00     0.055 C 
ATOM      4  C3  UNK     1       2.016  33.640 237.030  1.00  0.00     0.055 C 
ATOM      5  C4  UNK     1       3.809  35.858 237.506  1.00  0.00     0.273 C 
ATOM      6  C5  UNK     1       2.564  33.994 238.419  1.00  0.00     0.273 C 
ATOM      7  C8  UNK     1       4.392  34.953 239.660  1.00  0.00     0.309 C 
ENDROOT
BRANCH   2   8
ATOM      8  C6  UNK     1       0.801  35.859 236.350  1.00  0.00    -0.040 A 
ATOM      9  C9  UNK     1      -0.523  35.428 236.336  1.00  0.00     0.008 A 
ATOM     10  C11 UNK     1      -1.551  36.335 236.589  1.00  0.00     0.001 A 
ATOM     11  C13 UNK     1      -1.251  37.671 236.857  1.00  0.00     0.000 A 
ATOM     12  C12 UNK     1       0.077  38.099 236.871  1.00  0.00     0.001 A 
ATOM     13  C10 UNK     1       1.104  37.191 236.617  1.00  0.00     0.008 A 
ENDBRANCH   2   8
BRANCH   2  14
ATOM     14  C7  UNK     1       1.707  34.289 234.687  1.00  0.00     0.272 C 
ATOM     15  O2  UNK     1       1.471  33.109 234.461  1.00  0.00    -0.264 OA
BRANCH  14  16
ATOM     16  O1  UNK     1       1.811  35.285 233.762  1.00  0.00    -0.321 OA
BRANCH  16  17
ATOM     17  C14 UNK     1       1.027  35.109 232.577  1.00  0.00     0.174 C 
ATOM     18  C15 UNK     1      -0.270  35.875 232.726  1.00  0.00     0.034 C 
ENDBRANCH  16  17
ENDBRANCH  14  16
ENDBRANCH   2  14
TORSDOF 4
ENDMDL
MODEL 7
REMARK VINA RESULT:      -4.9      2.198      4.860
REMARK  4 active torsions:
REMARK  status: ('A' for Active; 'I' for Inactive)
REMARK    1  A    between atoms: O1_1  and  C7_10 
REMARK    2  A    between atoms: O1_1  and  C14_17 
REMARK    3  A    between atoms: C1_4  and  C6_9 
REMARK    4  A    between atoms: C1_4  and  C7_10 
ROOT
ATOM      1  N1  UNK     1       1.260  34.552 232.907  1.00  0.00     0.084 N 
ATOM      2  C1  UNK     1       1.385  35.211 235.815  1.00  0.00     0.078 C 
ATOM      3  C2  UNK     1       0.906  33.848 235.244  1.00  0.00     0.055 C 
ATOM      4  C3  UNK     1       2.326  35.829 234.746  1.00  0.00     0.055 C 
ATOM      5  C4  UNK     1       0.291  33.981 233.848  1.00  0.00     0.273 C 
ATOM      6  C5  UNK     1       1.704  35.881 233.344  1.00  0.00     0.273 C 
ATOM      7  C8  UNK     1       0.693  34.617 231.560  1.00  0.00     0.309 C 
ENDROOT
BRANCH   2   8
ATOM      8  C6  UNK     1       0.217  36.095 236.278  1.00  0.00    -0.040 A 
ATOM      9  C9  UNK     1       0.439  37.440 236.562  1.00  0.00     0.008 A 
ATOM     10  C11 UNK     1      -0.621  38.244 236.982  1.00  0.00     0.001 A 
ATOM     11  C13 UNK     1      -1.898  37.700 237.116  1.00  0.00     0.000 A 
ATOM     12  C12 UNK     1      -2.116  36.352 236.830  1.00  0.00     0.001 A 
ATOM     13  C10 UNK     1      -1.056  35.549 236.411  1.00  0.00     0.008 A 
ENDBRANCH   2   8
BRANCH   2  14
ATOM     14  C7  UNK     1       2.250  34.929 237.024  1.00  0.00     0.272 C 
ATOM     15  O2  UNK     1       1.861  34.338 238.023  1.00  0.00    -0.264 OA
BRANCH  14  16
ATOM     16  O1  UNK     1       3.500  35.433 236.818  1.00  0.00    -0.321 OA
BRANCH  16  17
ATOM     17  C14 UNK     1       4.079  36.119 237.933  1.00  0.00     0.174 C 
ATOM     18  C15 UNK     1       4.004  37.611 237.688  1.00  0.00     0.034 C 
ENDBRANCH  16  17
ENDBRANCH  14  16
ENDBRANCH   2  14
TORSDOF 4
ENDMDL
MODEL 8
REMARK VINA RESULT:      -4.8      2.375      4.601
REMARK  4 active torsions:
REMARK  status: ('A' for Active; 'I' for Inactive)
REMARK    1  A    between atoms: O1_1  and  C7_10 
REMARK    2  A    between atoms: O1_1  and  C14_17 
REMARK    3  A    between atoms: C1_4  and  C6_9 
REMARK    4  A    between atoms: C1_4  and  C7_10 
ROOT
ATOM      1  N1  UNK     1       0.445  34.405 231.393  1.00  0.00     0.084 N 
ATOM      2  C1  UNK     1       0.404  34.661 234.367  1.00  0.00     0.078 C 
ATOM      3  C2  UNK     1       0.745  35.820 233.391  1.00  0.00     0.055 C 
ATOM      4  C3  UNK     1      -0.480  33.663 233.571  1.00  0.00     0.055 C 
ATOM      5  C4  UNK     1       1.361  35.322 232.080  1.00  0.00     0.273 C 
ATOM      6  C5  UNK     1       0.134  33.240 232.230  1.00  0.00     0.273 C 
ATOM      7  C8  UNK     1       1.007  33.982 230.111  1.00  0.00     0.309 C 
ENDROOT
BRANCH   2   8
ATOM      8  C6  UNK     1       1.654  34.069 235.034  1.00  0.00    -0.040 A 
ATOM      9  C9  UNK     1       1.827  32.688 235.079  1.00  0.00     0.008 A 
ATOM     10  C11 UNK     1       2.962  32.150 235.685  1.00  0.00     0.001 A 
ATOM     11  C13 UNK     1       3.921  32.995 236.244  1.00  0.00     0.000 A 
ATOM     12  C12 UNK     1       3.745  34.378 236.197  1.00  0.00     0.001 A 
ATOM     13  C10 UNK     1       2.609  34.915 235.591  1.00  0.00     0.008 A 
ENDBRANCH   2   8
BRANCH   2  14
ATOM     14  C7  UNK     1      -0.476  35.221 235.463  1.00  0.00     0.272 C 
ATOM     15  O2  UNK     1      -0.979  34.545 236.352  1.00  0.00    -0.264 OA
BRANCH  14  16
ATOM     16  O1  UNK     1      -0.613  36.567 235.295  1.00  0.00    -0.321 OA
BRANCH  16  17
ATOM     17  C14 UNK     1      -0.795  37.322 236.497  1.00  0.00     0.174 C 
ATOM     18  C15 UNK     1       0.559  37.757 237.016  1.00  0.00     0.034 C 
ENDBRANCH  16  17
ENDBRANCH  14  16
ENDBRANCH   2  14
TORSDOF 4
ENDMDL
MODEL 9
REMARK VINA RESULT:      -4.7      2.356      4.779
REMARK  4 active torsions:
REMARK  status: ('A' for Active; 'I' for Inactive)
REMARK    1  A    between atoms: O1_1  and  C7_10 
REMARK    2  A    between atoms: O1_1  and  C14_17 
REMARK    3  A    between atoms: C1_4  and  C6_9 
REMARK    4  A    between atoms: C1_4  and  C7_10 
ROOT
ATOM      1  N1  UNK     1      -2.148  35.832 234.124  1.00  0.00     0.084 N 
ATOM      2  C1  UNK     1       0.224  36.155 235.907  1.00  0.00     0.078 C 
ATOM      3  C2  UNK     1       0.194  36.553 234.406  1.00  0.00     0.055 C 
ATOM      4  C3  UNK     1      -1.247  36.204 236.404  1.00  0.00     0.055 C 
ATOM      5  C4  UNK     1      -0.787  35.703 233.593  1.00  0.00     0.273 C 
ATOM      6  C5  UNK     1      -2.214  35.400 235.525  1.00  0.00     0.273 C 
ATOM      7  C8  UNK     1      -3.093  35.071 233.307  1.00  0.00     0.309 C 
ENDROOT
BRANCH   2   8
ATOM      8  C6  UNK     1       0.973  34.836 236.149  1.00  0.00    -0.040 A 
ATOM      9  C9  UNK     1       1.758  34.290 235.137  1.00  0.00     0.008 A 
ATOM     10  C11 UNK     1       2.439  33.093 235.356  1.00  0.00     0.001 A 
ATOM     11  C13 UNK     1       2.333  32.446 236.587  1.00  0.00     0.000 A 
ATOM     12  C12 UNK     1       1.546  32.996 237.599  1.00  0.00     0.001 A 
ATOM     13  C10 UNK     1       0.865  34.193 237.379  1.00  0.00     0.008 A 
ENDBRANCH   2   8
BRANCH   2  14
ATOM     14  C7  UNK     1       0.959  37.242 236.661  1.00  0.00     0.272 C 
ATOM     15  O2  UNK     1       0.446  37.950 237.518  1.00  0.00    -0.264 OA
BRANCH  14  16
ATOM     16  O1  UNK     1       2.252  37.300 236.233  1.00  0.00    -0.321 OA
BRANCH  16  17
ATOM     17  C14 UNK     1       3.234  37.467 237.261  1.00  0.00     0.174 C 
ATOM     18  C15 UNK     1       4.181  36.286 237.236  1.00  0.00     0.034 C 
ENDBRANCH  16  17
ENDBRANCH  14  16
ENDBRANCH   2  14
TORSDOF 4
ENDMDL
