MODEL 1
REMARK VINA RESULT:      -6.0      0.000      0.000
REMARK  7 active torsions:
REMARK  status: ('A' for Active; 'I' for Inactive)
REMARK    1  A    between atoms: N1_2  and  C3_5 
REMARK    2  A    between atoms: C1_3  and  C2_4 
REMARK    3  A    between atoms: C1_3  and  C4_6 
REMARK    4  A    between atoms: C1_3  and  C5_7 
REMARK    5  A    between atoms: C1_3  and  C6_8 
REMARK    6  A    between atoms: C2_4  and  C3_5 
REMARK    7  A    between atoms: C6_8  and  C8_10 
ROOT
ATOM      1  C1  UNK     1       1.405  33.996 235.430  1.00  0.00     0.076 C 
ENDROOT
BRANCH   1   2
ATOM      2  C2  UNK     1       2.308  35.191 235.916  1.00  0.00     0.062 C 
BRANCH   2   3
ATOM      3  C3  UNK     1       2.094  35.710 237.362  1.00  0.00     0.219 C 
ATOM      4  C7  UNK     1       3.122  35.084 238.309  1.00  0.00     0.043 C 
BRANCH   3   5
ATOM      5  N1  UNK     1       2.226  37.166 237.437  1.00  0.00     0.084 N 
ATOM      6  C13 UNK     1       1.569  37.796 236.293  1.00  0.00     0.309 C 
ATOM      7  C14 UNK     1       3.635  37.549 237.495  1.00  0.00     0.309 C 
ENDBRANCH   3   5
ENDBRANCH   2   3
ENDBRANCH   1   2
BRANCH   1   8
ATOM      8  C4  UNK     1       1.227  33.975 233.877  1.00  0.00    -0.037 A 
ATOM      9  C9  UNK     1       0.871  32.793 233.303  1.00  0.00     0.009 A 
ATOM     10  C16 UNK     1       0.713  32.775 231.917  1.00  0.00     0.001 A 
ATOM     11  C20 UNK     1       0.917  33.938 231.176  1.00  0.00     0.000 A 
ATOM     12  C18 UNK     1       1.281  35.121 231.821  1.00  0.00     0.001 A 
ATOM     13  C11 UNK     1       1.439  35.140 233.207  1.00  0.00     0.009 A 
ENDBRANCH   1   8
BRANCH   1  14
ATOM     14  C5  UNK     1       0.018  34.152 236.116  1.00  0.00    -0.037 A 
ATOM     15  C10 UNK     1      -0.231  33.396 237.223  1.00  0.00     0.009 A 
ATOM     16  C17 UNK     1      -1.475  33.536 237.838  1.00  0.00     0.001 A 
ATOM     17  C21 UNK     1      -2.414  34.425 237.317  1.00  0.00     0.000 A 
ATOM     18  C19 UNK     1      -2.109  35.176 236.181  1.00  0.00     0.001 A 
ATOM     19  C12 UNK     1      -0.865  35.036 235.567  1.00  0.00     0.009 A 
ENDBRANCH   1  14
BRANCH   1  20
ATOM     20  C6  UNK     1       2.115  32.626 235.743  1.00  0.00     0.144 C 
ATOM     21  O1  UNK     1       1.476  31.594 235.968  1.00  0.00    -0.296 OA
BRANCH  20  22
ATOM     22  C8  UNK     1       3.640  32.568 235.637  1.00  0.00     0.075 C 
ATOM     23  C15 UNK     1       4.131  31.268 235.019  1.00  0.00     0.013 C 
ENDBRANCH  20  22
ENDBRANCH   1  20
TORSDOF 7
ENDMDL
MODEL 2
REMARK VINA RESULT:      -5.8      2.277      5.047
REMARK  7 active torsions:
REMARK  status: ('A' for Active; 'I' for Inactive)
REMARK    1  A    between atoms: N1_2  and  C3_5 
REMARK    2  A    between atoms: C1_3  and  C2_4 
REMARK    3  A    between atoms: C1_3  and  C4_6 
REMARK    4  A    between atoms: C1_3  and  C5_7 
REMARK    5  A    between atoms: C1_3  and  C6_8 
REMARK    6  A    between atoms: C2_4  and  C3_5 
REMARK    7  A    between atoms: C6_8  and  C8_10 
ROOT
ATOM      1  C1  UNK     1       1.735  34.853 237.023  1.00  0.00     0.076 C 
ENDROOT
BRANCH   1   2
ATOM      2  C2  UNK     1       1.169  33.573 237.747  1.00  0.00     0.062 C 
BRANCH   2   3
ATOM      3  C3  UNK     1       1.327  32.210 237.024  1.00  0.00     0.219 C 
ATOM      4  C7  UNK     1       2.297  31.309 237.794  1.00  0.00     0.043 C 
BRANCH   3   5
ATOM      5  N1  UNK     1       0.047  31.512 236.904  1.00  0.00     0.084 N 
ATOM      6  C13 UNK     1      -0.571  31.801 235.610  1.00  0.00     0.309 C 
ATOM      7  C14 UNK     1      -0.847  31.893 237.996  1.00  0.00     0.309 C 
ENDBRANCH   3   5
ENDBRANCH   2   3
ENDBRANCH   1   2
BRANCH   1   8
ATOM      8  C4  UNK     1       2.929  35.498 237.797  1.00  0.00    -0.037 A 
ATOM      9  C9  UNK     1       3.297  34.923 238.975  1.00  0.00     0.009 A 
ATOM     10  C16 UNK     1       4.362  35.499 239.666  1.00  0.00     0.001 A 
ATOM     11  C20 UNK     1       5.006  36.622 239.146  1.00  0.00     0.000 A 
ATOM     12  C18 UNK     1       4.583  37.168 237.933  1.00  0.00     0.001 A 
ATOM     13  C11 UNK     1       3.518  36.592 237.241  1.00  0.00     0.009 A 
ENDBRANCH   1   8
BRANCH   1  14
ATOM     14  C5  UNK     1       0.568  35.875 236.907  1.00  0.00    -0.037 A 
ATOM     15  C10 UNK     1       0.868  37.198 237.048  1.00  0.00     0.009 A 
ATOM     16  C17 UNK     1      -0.179  38.114 236.944  1.00  0.00     0.001 A 
ATOM     17  C21 UNK     1      -1.477  37.665 236.705  1.00  0.00     0.000 A 
ATOM     18  C19 UNK     1      -1.730  36.300 236.569  1.00  0.00     0.001 A 
ATOM     19  C12 UNK     1      -0.683  35.384 236.672  1.00  0.00     0.009 A 
ENDBRANCH   1  14
BRANCH   1  20
ATOM     20  C6  UNK     1       2.363  34.450 235.636  1.00  0.00     0.144 C 
ATOM     21  O1  UNK     1       3.438  33.848 235.556  1.00  0.00    -0.296 OA
BRANCH  20  22
ATOM     22  C8  UNK     1       1.543  34.711 234.373  1.00  0.00     0.075 C 
ATOM     23  C15 UNK     1       1.908  36.026 233.703  1.00  0.00     0.013 C 
ENDBRANCH  20  22
ENDBRANCH   1  20
TORSDOF 7
ENDMDL
MODEL 3
REMARK VINA RESULT:      -5.8      0.951      4.251
REMARK  7 active torsions:
REMARK  status: ('A' for Active; 'I' for Inactive)
REMARK    1  A    between atoms: N1_2  and  C3_5 
REMARK    2  A    between atoms: C1_3  and  C2_4 
REMARK    3  A    between atoms: C1_3  and  C4_6 
REMARK    4  A    between atoms: C1_3  and  C5_7 
REMARK    5  A    between atoms: C1_3  and  C6_8 
REMARK    6  A    between atoms: C2_4  and  C3_5 
REMARK    7  A    between atoms: C6_8  and  C8_10 
ROOT
ATOM      1  C1  UNK     1       1.643  33.811 235.484  1.00  0.00     0.076 C 
ENDROOT
BRANCH   1   2
ATOM      2  C2  UNK     1       2.491  35.055 235.947  1.00  0.00     0.062 C 
BRANCH   2   3
ATOM      3  C3  UNK     1       2.236  35.606 237.374  1.00  0.00     0.219 C 
ATOM      4  C7  UNK     1       3.265  35.037 238.355  1.00  0.00     0.043 C 
BRANCH   3   5
ATOM      5  N1  UNK     1       2.324  37.066 237.412  1.00  0.00     0.084 N 
ATOM      6  C13 UNK     1       1.697  37.645 236.223  1.00  0.00     0.309 C 
ATOM      7  C14 UNK     1       3.718  37.492 237.514  1.00  0.00     0.309 C 
ENDBRANCH   3   5
ENDBRANCH   2   3
ENDBRANCH   1   2
BRANCH   1   8
ATOM      8  C4  UNK     1       2.384  32.457 235.732  1.00  0.00    -0.037 A 
ATOM      9  C9  UNK     1       3.745  32.480 235.739  1.00  0.00     0.009 A 
ATOM     10  C16 UNK     1       4.407  31.272 235.961  1.00  0.00     0.001 A 
ATOM     11  C20 UNK     1       3.675  30.103 236.164  1.00  0.00     0.000 A 
ATOM     12  C18 UNK     1       2.280  30.142 236.146  1.00  0.00     0.001 A 
ATOM     13  C11 UNK     1       1.618  31.349 235.925  1.00  0.00     0.009 A 
ENDBRANCH   1   8
BRANCH   1  14
ATOM     14  C5  UNK     1       1.356  33.983 233.965  1.00  0.00    -0.037 A 
ATOM     15  C10 UNK     1       1.488  35.231 233.432  1.00  0.00     0.009 A 
ATOM     16  C17 UNK     1       1.230  35.385 232.070  1.00  0.00     0.001 A 
ATOM     17  C21 UNK     1       0.852  34.283 231.303  1.00  0.00     0.000 A 
ATOM     18  C19 UNK     1       0.732  33.027 231.898  1.00  0.00     0.001 A 
ATOM     19  C12 UNK     1       0.990  32.873 233.260  1.00  0.00     0.009 A 
ENDBRANCH   1  14
BRANCH   1  20
ATOM     20  C6  UNK     1       0.343  33.691 236.364  1.00  0.00     0.144 C 
ATOM     21  O1  UNK     1       0.373  33.261 237.521  1.00  0.00    -0.296 OA
BRANCH  20  22
ATOM     22  C8  UNK     1      -0.964  34.244 235.793  1.00  0.00     0.075 C 
ATOM     23  C15 UNK     1      -1.363  35.566 236.428  1.00  0.00     0.013 C 
ENDBRANCH  20  22
ENDBRANCH   1  20
TORSDOF 7
ENDMDL
MODEL 4
REMARK VINA RESULT:      -5.7      2.219      5.695
REMARK  7 active torsions:
REMARK  status: ('A' for Active; 'I' for Inactive)
REMARK    1  A    between atoms: N1_2  and  C3_5 
REMARK    2  A    between atoms: C1_3  and  C2_4 
REMARK    3  A    between atoms: C1_3  and  C4_6 
REMARK    4  A    between atoms: C1_3  and  C5_7 
REMARK    5  A    between atoms: C1_3  and  C6_8 
REMARK    6  A    between atoms: C2_4  and  C3_5 
REMARK    7  A    between atoms: C6_8  and  C8_10 
ROOT
ATOM      1  C1  UNK     1       2.733  34.135 236.491  1.00  0.00     0.076 C 
ENDROOT
BRANCH   1   2
ATOM      2  C2  UNK     1       2.610  34.661 235.011  1.00  0.00     0.062 C 
BRANCH   2   3
ATOM      3  C3  UNK     1       1.190  34.735 234.392  1.00  0.00     0.219 C 
ATOM      4  C7  UNK     1       0.900  36.155 233.895  1.00  0.00     0.043 C 
BRANCH   3   5
ATOM      5  N1  UNK     1       1.045  33.814 233.264  1.00  0.00     0.084 N 
ATOM      6  C13 UNK     1       0.843  34.558 232.022  1.00  0.00     0.309 C 
ATOM      7  C14 UNK     1      -0.067  32.894 233.497  1.00  0.00     0.309 C 
ENDBRANCH   3   5
ENDBRANCH   2   3
ENDBRANCH   1   2
BRANCH   1   8
ATOM      8  C4  UNK     1       3.374  35.192 237.448  1.00  0.00    -0.037 A 
ATOM      9  C9  UNK     1       3.462  34.870 238.768  1.00  0.00     0.009 A 
ATOM     10  C16 UNK     1       4.034  35.813 239.622  1.00  0.00     0.001 A 
ATOM     11  C20 UNK     1       4.488  37.030 239.114  1.00  0.00     0.000 A 
ATOM     12  C18 UNK     1       4.371  37.303 237.751  1.00  0.00     0.001 A 
ATOM     13  C11 UNK     1       3.800  36.361 236.896  1.00  0.00     0.009 A 
ENDBRANCH   1   8
BRANCH   1  14
ATOM     14  C5  UNK     1       3.614  32.854 236.457  1.00  0.00    -0.037 A 
ATOM     15  C10 UNK     1       4.351  32.561 237.566  1.00  0.00     0.009 A 
ATOM     16  C17 UNK     1       5.142  31.412 237.535  1.00  0.00     0.001 A 
ATOM     17  C21 UNK     1       5.158  30.609 236.396  1.00  0.00     0.000 A 
ATOM     18  C19 UNK     1       4.385  30.953 235.287  1.00  0.00     0.001 A 
ATOM     19  C12 UNK     1       3.595  32.102 235.318  1.00  0.00     0.009 A 
ENDBRANCH   1  14
BRANCH   1  20
ATOM     20  C6  UNK     1       1.300  33.902 237.098  1.00  0.00     0.144 C 
ATOM     21  O1  UNK     1       0.528  34.838 237.332  1.00  0.00    -0.296 OA
BRANCH  20  22
ATOM     22  C8  UNK     1       0.823  32.461 237.280  1.00  0.00     0.075 C 
ATOM     23  C15 UNK     1       0.844  32.019 238.735  1.00  0.00     0.013 C 
ENDBRANCH  20  22
ENDBRANCH   1  20
TORSDOF 7
ENDMDL
MODEL 5
REMARK VINA RESULT:      -5.7      1.951      4.914
REMARK  7 active torsions:
REMARK  status: ('A' for Active; 'I' for Inactive)
REMARK    1  A    between atoms: N1_2  and  C3_5 
REMARK    2  A    between atoms: C1_3  and  C2_4 
REMARK    3  A    between atoms: C1_3  and  C4_6 
REMARK    4  A    between atoms: C1_3  and  C5_7 
REMARK    5  A    between atoms: C1_3  and  C6_8 
REMARK    6  A    between atoms: C2_4  and  C3_5 
REMARK    7  A    between atoms: C6_8  and  C8_10 
ROOT
ATOM      1  C1  UNK     1       0.747  34.177 235.810  1.00  0.00     0.076 C 
ENDROOT
BRANCH   1   2
ATOM      2  C2  UNK     1      -0.299  33.084 236.251  1.00  0.00     0.062 C 
BRANCH   2   3
ATOM      3  C3  UNK     1      -0.556  32.909 237.770  1.00  0.00     0.219 C 
ATOM      4  C7  UNK     1      -1.980  33.349 238.123  1.00  0.00     0.043 C 
BRANCH   3   5
ATOM      5  N1  UNK     1      -0.388  31.517 238.189  1.00  0.00     0.084 N 
ATOM      6  C13 UNK     1       0.336  31.451 239.457  1.00  0.00     0.309 C 
ATOM      7  C14 UNK     1       0.314  30.755 237.157  1.00  0.00     0.309 C 
ENDBRANCH   3   5
ENDBRANCH   2   3
ENDBRANCH   1   2
BRANCH   1   8
ATOM      8  C4  UNK     1       0.331  35.616 236.255  1.00  0.00    -0.037 A 
ATOM      9  C9  UNK     1       1.284  36.390 236.843  1.00  0.00     0.009 A 
ATOM     10  C16 UNK     1       0.912  37.675 237.241  1.00  0.00     0.001 A 
ATOM     11  C20 UNK     1      -0.393  38.120 237.031  1.00  0.00     0.000 A 
ATOM     12  C18 UNK     1      -1.326  37.280 236.423  1.00  0.00     0.001 A 
ATOM     13  C11 UNK     1      -0.956  35.996 236.025  1.00  0.00     0.009 A 
ENDBRANCH   1   8
BRANCH   1  14
ATOM     14  C5  UNK     1       0.855  34.117 234.259  1.00  0.00    -0.037 A 
ATOM     15  C10 UNK     1       1.219  35.256 233.604  1.00  0.00     0.009 A 
ATOM     16  C17 UNK     1       1.315  35.202 232.213  1.00  0.00     0.001 A 
ATOM     17  C21 UNK     1       1.043  34.011 231.542  1.00  0.00     0.000 A 
ATOM     18  C19 UNK     1       0.674  32.873 232.260  1.00  0.00     0.001 A 
ATOM     19  C12 UNK     1       0.578  32.927 233.651  1.00  0.00     0.009 A 
ENDBRANCH   1  14
BRANCH   1  20
ATOM     20  C6  UNK     1       2.116  33.938 236.550  1.00  0.00     0.144 C 
ATOM     21  O1  UNK     1       2.196  33.897 237.781  1.00  0.00    -0.296 OA
BRANCH  20  22
ATOM     22  C8  UNK     1       3.347  33.627 235.698  1.00  0.00     0.075 C 
ATOM     23  C15 UNK     1       3.629  32.135 235.606  1.00  0.00     0.013 C 
ENDBRANCH  20  22
ENDBRANCH   1  20
TORSDOF 7
ENDMDL
MODEL 6
REMARK VINA RESULT:      -5.6      2.238      4.699
REMARK  7 active torsions:
REMARK  status: ('A' for Active; 'I' for Inactive)
REMARK    1  A    between atoms: N1_2  and  C3_5 
REMARK    2  A    between atoms: C1_3  and  C2_4 
REMARK    3  A    between atoms: C1_3  and  C4_6 
REMARK    4  A    between atoms: C1_3  and  C5_7 
REMARK    5  A    between atoms: C1_3  and  C6_8 
REMARK    6  A    between atoms: C2_4  and  C3_5 
REMARK    7  A    between atoms: C6_8  and  C8_10 
ROOT
ATOM      1  C1  UNK     1       0.757  34.549 234.806  1.00  0.00     0.076 C 
ENDROOT
BRANCH   1   2
ATOM      2  C2  UNK     1       0.461  34.161 233.308  1.00  0.00     0.062 C 
BRANCH   2   3
ATOM      3  C3  UNK     1       0.429  35.305 232.262  1.00  0.00     0.219 C 
ATOM      4  C7  UNK     1       1.355  34.978 231.087  1.00  0.00     0.043 C 
BRANCH   3   5
ATOM      5  N1  UNK     1      -0.920  35.520 231.739  1.00  0.00     0.084 N 
ATOM      6  C13 UNK     1      -0.881  35.703 230.289  1.00  0.00     0.309 C 
ATOM      7  C14 UNK     1      -1.540  36.675 232.385  1.00  0.00     0.309 C 
ENDBRANCH   3   5
ENDBRANCH   2   3
ENDBRANCH   1   2
BRANCH   1   8
ATOM      8  C4  UNK     1       2.028  33.835 235.369  1.00  0.00    -0.037 A 
ATOM      9  C9  UNK     1       2.755  34.497 236.310  1.00  0.00     0.009 A 
ATOM     10  C16 UNK     1       3.889  33.858 236.812  1.00  0.00     0.001 A 
ATOM     11  C20 UNK     1       4.239  32.591 236.347  1.00  0.00     0.000 A 
ATOM     12  C18 UNK     1       3.455  31.961 235.381  1.00  0.00     0.001 A 
ATOM     13  C11 UNK     1       2.320  32.599 234.879  1.00  0.00     0.009 A 
ENDBRANCH   1   8
BRANCH   1  14
ATOM     14  C5  UNK     1      -0.488  34.146 235.646  1.00  0.00    -0.037 A 
ATOM     15  C10 UNK     1      -0.328  34.008 236.993  1.00  0.00     0.009 A 
ATOM     16  C17 UNK     1      -1.445  33.645 237.745  1.00  0.00     0.001 A 
ATOM     17  C21 UNK     1      -2.672  33.437 237.116  1.00  0.00     0.000 A 
ATOM     18  C19 UNK     1      -2.782  33.591 235.734  1.00  0.00     0.001 A 
ATOM     19  C12 UNK     1      -1.665  33.954 234.981  1.00  0.00     0.009 A 
ENDBRANCH   1  14
BRANCH   1  20
ATOM     20  C6  UNK     1       1.116  36.079 234.902  1.00  0.00     0.144 C 
ATOM     21  O1  UNK     1       2.052  36.572 234.265  1.00  0.00    -0.296 OA
BRANCH  20  22
ATOM     22  C8  UNK     1       0.190  36.985 235.715  1.00  0.00     0.075 C 
ATOM     23  C15 UNK     1       0.916  37.695 236.846  1.00  0.00     0.013 C 
ENDBRANCH  20  22
ENDBRANCH   1  20
TORSDOF 7
ENDMDL
MODEL 7
REMARK VINA RESULT:      -5.5      1.742      4.793
REMARK  7 active torsions:
REMARK  status: ('A' for Active; 'I' for Inactive)
REMARK    1  A    between atoms: N1_2  and  C3_5 
REMARK    2  A    between atoms: C1_3  and  C2_4 
REMARK    3  A    between atoms: C1_3  and  C4_6 
REMARK    4  A    between atoms: C1_3  and  C5_7 
REMARK    5  A    between atoms: C1_3  and  C6_8 
REMARK    6  A    between atoms: C2_4  and  C3_5 
REMARK    7  A    between atoms: C6_8  and  C8_10 
ROOT
ATOM      1  C1  UNK     1       1.432  33.951 235.749  1.00  0.00     0.076 C 
ENDROOT
BRANCH   1   2
ATOM      2  C2  UNK     1      -0.040  33.879 236.306  1.00  0.00     0.062 C 
BRANCH   2   3
ATOM      3  C3  UNK     1      -1.190  33.725 235.277  1.00  0.00     0.219 C 
ATOM      4  C7  UNK     1      -1.865  32.360 235.434  1.00  0.00     0.043 C 
BRANCH   3   5
ATOM      5  N1  UNK     1      -2.208  34.763 235.446  1.00  0.00     0.084 N 
ATOM      6  C13 UNK     1      -1.897  35.922 234.610  1.00  0.00     0.309 C 
ATOM      7  C14 UNK     1      -2.307  35.157 236.850  1.00  0.00     0.309 C 
ENDBRANCH   3   5
ENDBRANCH   2   3
ENDBRANCH   1   2
BRANCH   1   8
ATOM      8  C4  UNK     1       2.270  32.683 236.113  1.00  0.00    -0.037 A 
ATOM      9  C9  UNK     1       3.408  32.458 235.400  1.00  0.00     0.009 A 
ATOM     10  C16 UNK     1       4.156  31.326 235.725  1.00  0.00     0.001 A 
ATOM     11  C20 UNK     1       3.729  30.478 236.745  1.00  0.00     0.000 A 
ATOM     12  C18 UNK     1       2.554  30.760 237.442  1.00  0.00     0.001 A 
ATOM     13  C11 UNK     1       1.805  31.892 237.118  1.00  0.00     0.009 A 
ENDBRANCH   1   8
BRANCH   1  14
ATOM     14  C5  UNK     1       2.098  35.216 236.361  1.00  0.00    -0.037 A 
ATOM     15  C10 UNK     1       3.460  35.252 236.416  1.00  0.00     0.009 A 
ATOM     16  C17 UNK     1       4.058  36.386 236.965  1.00  0.00     0.001 A 
ATOM     17  C21 UNK     1       3.266  37.433 237.435  1.00  0.00     0.000 A 
ATOM     18  C19 UNK     1       1.876  37.346 237.356  1.00  0.00     0.001 A 
ATOM     19  C12 UNK     1       1.278  36.212 236.806  1.00  0.00     0.009 A 
ENDBRANCH   1  14
BRANCH   1  20
ATOM     20  C6  UNK     1       1.410  33.945 234.175  1.00  0.00     0.144 C 
ATOM     21  O1  UNK     1       1.202  32.915 233.527  1.00  0.00    -0.296 OA
BRANCH  20  22
ATOM     22  C8  UNK     1       1.528  35.287 233.451  1.00  0.00     0.075 C 
ATOM     23  C15 UNK     1       1.220  35.177 231.966  1.00  0.00     0.013 C 
ENDBRANCH  20  22
ENDBRANCH   1  20
TORSDOF 7
ENDMDL
MODEL 8
REMARK VINA RESULT:      -5.5      2.179      4.449
REMARK  7 active torsions:
REMARK  status: ('A' for Active; 'I' for Inactive)
REMARK    1  A    between atoms: N1_2  and  C3_5 
REMARK    2  A    between atoms: C1_3  and  C2_4 
REMARK    3  A    between atoms: C1_3  and  C4_6 
REMARK    4  A    between atoms: C1_3  and  C5_7 
REMARK    5  A    between atoms: C1_3  and  C6_8 
REMARK    6  A    between atoms: C2_4  and  C3_5 
REMARK    7  A    between atoms: C6_8  and  C8_10 
ROOT
ATOM      1  C1  UNK     1       0.920  35.328 234.879  1.00  0.00     0.076 C 
ENDROOT
BRANCH   1   2
ATOM      2  C2  UNK     1      -0.162  35.275 236.022  1.00  0.00     0.062 C 
BRANCH   2   3
ATOM      3  C3  UNK     1      -0.880  33.923 236.270  1.00  0.00     0.219 C 
ATOM      4  C7  UNK     1      -0.407  33.302 237.587  1.00  0.00     0.043 C 
BRANCH   3   5
ATOM      5  N1  UNK     1      -2.333  34.088 236.334  1.00  0.00     0.084 N 
ATOM      6  C13 UNK     1      -2.952  33.637 235.088  1.00  0.00     0.309 C 
ATOM      7  C14 UNK     1      -2.677  35.483 236.602  1.00  0.00     0.309 C 
ENDBRANCH   3   5
ENDBRANCH   2   3
ENDBRANCH   1   2
BRANCH   1   8
ATOM      8  C4  UNK     1       0.282  35.470 233.459  1.00  0.00    -0.037 A 
ATOM      9  C9  UNK     1      -0.891  36.154 233.364  1.00  0.00     0.009 A 
ATOM     10  C16 UNK     1      -1.460  36.280 232.096  1.00  0.00     0.001 A 
ATOM     11  C20 UNK     1      -0.829  35.716 230.989  1.00  0.00     0.000 A 
ATOM     12  C18 UNK     1       0.373  35.025 231.148  1.00  0.00     0.001 A 
ATOM     13  C11 UNK     1       0.943  34.899 232.415  1.00  0.00     0.009 A 
ENDBRANCH   1   8
BRANCH   1  14
ATOM     14  C5  UNK     1       1.743  34.011 234.957  1.00  0.00    -0.037 A 
ATOM     15  C10 UNK     1       2.877  34.015 235.714  1.00  0.00     0.009 A 
ATOM     16  C17 UNK     1       3.615  32.833 235.783  1.00  0.00     0.001 A 
ATOM     17  C21 UNK     1       3.185  31.702 235.091  1.00  0.00     0.000 A 
ATOM     18  C19 UNK     1       2.017  31.750 234.330  1.00  0.00     0.001 A 
ATOM     19  C12 UNK     1       1.278  32.932 234.261  1.00  0.00     0.009 A 
ENDBRANCH   1  14
BRANCH   1  20
ATOM     20  C6  UNK     1       1.793  36.630 235.027  1.00  0.00     0.144 C 
ATOM     21  O1  UNK     1       2.587  36.988 234.152  1.00  0.00    -0.296 OA
BRANCH  20  22
ATOM     22  C8  UNK     1       1.544  37.527 236.240  1.00  0.00     0.075 C 
ATOM     23  C15 UNK     1       2.645  37.415 237.282  1.00  0.00     0.013 C 
ENDBRANCH  20  22
ENDBRANCH   1  20
TORSDOF 7
ENDMDL
MODEL 9
REMARK VINA RESULT:      -5.4      1.775      4.778
REMARK  7 active torsions:
REMARK  status: ('A' for Active; 'I' for Inactive)
REMARK    1  A    between atoms: N1_2  and  C3_5 
REMARK    2  A    between atoms: C1_3  and  C2_4 
REMARK    3  A    between atoms: C1_3  and  C4_6 
REMARK    4  A    between atoms: C1_3  and  C5_7 
REMARK    5  A    between atoms: C1_3  and  C6_8 
REMARK    6  A    between atoms: C2_4  and  C3_5 
REMARK    7  A    between atoms: C6_8  and  C8_10 
ROOT
ATOM      1  C1  UNK     1       1.056  34.303 236.057  1.00  0.00     0.076 C 
ENDROOT
BRANCH   1   2
ATOM      2  C2  UNK     1      -0.410  34.638 236.527  1.00  0.00     0.062 C 
BRANCH   2   3
ATOM      3  C3  UNK     1      -1.576  34.224 235.591  1.00  0.00     0.219 C 
ATOM      4  C7  UNK     1      -2.529  33.271 236.318  1.00  0.00     0.043 C 
BRANCH   3   5
ATOM      5  N1  UNK     1      -2.343  35.386 235.140  1.00  0.00     0.084 N 
ATOM      6  C13 UNK     1      -2.466  35.380 233.683  1.00  0.00     0.309 C 
ATOM      7  C14 UNK     1      -1.712  36.623 235.596  1.00  0.00     0.309 C 
ENDBRANCH   3   5
ENDBRANCH   2   3
ENDBRANCH   1   2
BRANCH   1   8
ATOM      8  C4  UNK     1       2.097  35.358 236.553  1.00  0.00    -0.037 A 
ATOM      9  C9  UNK     1       1.615  36.487 237.141  1.00  0.00     0.009 A 
ATOM     10  C16 UNK     1       2.545  37.429 237.583  1.00  0.00     0.001 A 
ATOM     11  C20 UNK     1       3.909  37.194 237.415  1.00  0.00     0.000 A 
ATOM     12  C18 UNK     1       4.344  36.017 236.805  1.00  0.00     0.001 A 
ATOM     13  C11 UNK     1       3.415  35.075 236.362  1.00  0.00     0.009 A 
ENDBRANCH   1   8
BRANCH   1  14
ATOM     14  C5  UNK     1       1.047  34.262 234.503  1.00  0.00    -0.037 A 
ATOM     15  C10 UNK     1       0.778  33.068 233.901  1.00  0.00     0.009 A 
ATOM     16  C17 UNK     1       0.772  33.032 232.506  1.00  0.00     0.001 A 
ATOM     17  C21 UNK     1       1.035  34.191 231.778  1.00  0.00     0.000 A 
ATOM     18  C19 UNK     1       1.305  35.388 232.443  1.00  0.00     0.001 A 
ATOM     19  C12 UNK     1       1.311  35.424 233.837  1.00  0.00     0.009 A 
ENDBRANCH   1  14
BRANCH   1  20
ATOM     20  C6  UNK     1       1.539  32.961 236.723  1.00  0.00     0.144 C 
ATOM     21  O1  UNK     1       2.335  32.202 236.163  1.00  0.00    -0.296 OA
BRANCH  20  22
ATOM     22  C8  UNK     1       1.093  32.670 238.157  1.00  0.00     0.075 C 
ATOM     23  C15 UNK     1       2.245  32.732 239.148  1.00  0.00     0.013 C 
ENDBRANCH  20  22
ENDBRANCH   1  20
TORSDOF 7
ENDMDL
