MODEL 1
REMARK VINA RESULT:      -5.9      0.000      0.000
REMARK  4 active torsions:
REMARK  status: ('A' for Active; 'I' for Inactive)
REMARK    1  A    between atoms: N1_3  and  C1_4 
REMARK    2  A    between atoms: N1_3  and  C2_5 
REMARK    3  A    between atoms: C2_5  and  C7_10 
REMARK    4  A    between atoms: C7_10  and  C8_11 
ROOT
ATOM      1  O1  UNK     1      -0.829  41.851 229.058  1.00  0.00    -0.290 OA
ATOM      2  C7  UNK     1      -0.345  40.877 228.483  1.00  0.00     0.192 C 
ENDROOT
BRANCH   2   3
ATOM      3  C2  UNK     1      -1.208  39.711 228.010  1.00  0.00     0.291 C 
ATOM      4  C6  UNK     1      -2.268  40.203 227.032  1.00  0.00     0.051 C 
BRANCH   3   5
ATOM      5  N1  UNK     1      -1.851  39.143 229.182  1.00  0.00     0.103 N 
ATOM      6  H1  UNK     1      -1.390  39.516 230.013  1.00  0.00     0.317 HD
BRANCH   5   7
ATOM      7  C1  UNK     1      -1.738  37.681 229.174  1.00  0.00     0.148 C 
ATOM      8  C3  UNK     1      -2.979  37.098 228.491  1.00  0.00     0.048 C 
ATOM      9  C4  UNK     1      -0.477  37.294 228.392  1.00  0.00     0.048 C 
ATOM     10  C5  UNK     1      -1.641  37.170 230.617  1.00  0.00     0.048 C 
ENDBRANCH   5   7
ENDBRANCH   3   5
ENDBRANCH   2   3
BRANCH   2  11
ATOM     11  C8  UNK     1       1.126  40.854 228.231  1.00  0.00     0.014 A 
ATOM     12  C9  UNK     1       1.936  41.680 228.975  1.00  0.00     0.039 A 
ATOM     13  C11 UNK     1       3.311  41.656 228.739  1.00  0.00     0.035 A 
ATOM     14 Cl1  UNK     1       4.359  42.674 229.650  1.00  0.00    -0.084 Cl
ATOM     15  C13 UNK     1       3.837  40.808 227.766  1.00  0.00     0.024 A 
ATOM     16  C12 UNK     1       2.989  39.983 227.027  1.00  0.00     0.003 A 
ATOM     17  C10 UNK     1       1.614  40.006 227.263  1.00  0.00     0.015 A 
ENDBRANCH   2  11
TORSDOF 4
ENDMDL
MODEL 2
REMARK VINA RESULT:      -5.8      3.335      5.964
REMARK  4 active torsions:
REMARK  status: ('A' for Active; 'I' for Inactive)
REMARK    1  A    between atoms: N1_3  and  C1_4 
REMARK    2  A    between atoms: N1_3  and  C2_5 
REMARK    3  A    between atoms: C2_5  and  C7_10 
REMARK    4  A    between atoms: C7_10  and  C8_11 
ROOT
ATOM      1  O1  UNK     1      -1.174  41.295 228.929  1.00  0.00    -0.290 OA
ATOM      2  C7  UNK     1      -0.909  40.669 227.903  1.00  0.00     0.192 C 
ENDROOT
BRANCH   2   3
ATOM      3  C2  UNK     1       0.511  40.213 227.583  1.00  0.00     0.291 C 
ATOM      4  C6  UNK     1       0.635  38.705 227.762  1.00  0.00     0.051 C 
BRANCH   3   5
ATOM      5  N1  UNK     1       1.403  40.889 228.510  1.00  0.00     0.103 N 
ATOM      6  H1  UNK     1       0.839  41.462 229.138  1.00  0.00     0.317 HD
BRANCH   5   7
ATOM      7  C1  UNK     1       2.349  41.744 227.784  1.00  0.00     0.148 C 
ATOM      8  C3  UNK     1       2.363  41.319 226.312  1.00  0.00     0.048 C 
ATOM      9  C4  UNK     1       1.883  43.199 227.907  1.00  0.00     0.048 C 
ATOM     10  C5  UNK     1       3.748  41.586 228.392  1.00  0.00     0.048 C 
ENDBRANCH   5   7
ENDBRANCH   3   5
ENDBRANCH   2   3
BRANCH   2  11
ATOM     11  C8  UNK     1      -2.018  40.336 226.962  1.00  0.00     0.014 A 
ATOM     12  C9  UNK     1      -2.864  39.298 227.281  1.00  0.00     0.039 A 
ATOM     13  C11 UNK     1      -3.902  38.989 226.401  1.00  0.00     0.035 A 
ATOM     14 Cl1  UNK     1      -4.982  37.699 226.763  1.00  0.00    -0.084 Cl
ATOM     15  C13 UNK     1      -4.064  39.724 225.228  1.00  0.00     0.024 A 
ATOM     16  C12 UNK     1      -3.189  40.770 224.933  1.00  0.00     0.003 A 
ATOM     17  C10 UNK     1      -2.152  41.080 225.813  1.00  0.00     0.015 A 
ENDBRANCH   2  11
TORSDOF 4
ENDMDL
MODEL 3
REMARK VINA RESULT:      -5.6      9.641     11.475
REMARK  4 active torsions:
REMARK  status: ('A' for Active; 'I' for Inactive)
REMARK    1  A    between atoms: N1_3  and  C1_4 
REMARK    2  A    between atoms: N1_3  and  C2_5 
REMARK    3  A    between atoms: C2_5  and  C7_10 
REMARK    4  A    between atoms: C7_10  and  C8_11 
ROOT
ATOM      1  O1  UNK     1       3.366  34.885 239.495  1.00  0.00    -0.290 OA
ATOM      2  C7  UNK     1       3.453  34.945 238.268  1.00  0.00     0.192 C 
ENDROOT
BRANCH   2   3
ATOM      3  C2  UNK     1       3.270  36.258 237.513  1.00  0.00     0.291 C 
ATOM      4  C6  UNK     1       4.386  37.231 237.868  1.00  0.00     0.051 C 
BRANCH   3   5
ATOM      5  N1  UNK     1       1.990  36.815 237.915  1.00  0.00     0.103 N 
ATOM      6  H1  UNK     1       1.617  36.246 238.675  1.00  0.00     0.317 HD
BRANCH   5   7
ATOM      7  C1  UNK     1       1.048  36.808 236.791  1.00  0.00     0.148 C 
ATOM      8  C3  UNK     1       0.278  35.483 236.806  1.00  0.00     0.048 C 
ATOM      9  C4  UNK     1       0.077  37.982 236.961  1.00  0.00     0.048 C 
ATOM     10  C5  UNK     1       1.824  36.952 235.476  1.00  0.00     0.048 C 
ENDBRANCH   5   7
ENDBRANCH   3   5
ENDBRANCH   2   3
BRANCH   2  11
ATOM     11  C8  UNK     1       3.763  33.697 237.511  1.00  0.00     0.014 A 
ATOM     12  C9  UNK     1       4.403  32.670 238.166  1.00  0.00     0.039 A 
ATOM     13  C11 UNK     1       4.691  31.503 237.458  1.00  0.00     0.035 A 
ATOM     14 Cl1  UNK     1       5.490  30.195 238.241  1.00  0.00    -0.084 Cl
ATOM     15  C13 UNK     1       4.332  31.396 236.115  1.00  0.00     0.024 A 
ATOM     16  C12 UNK     1       3.685  32.456 235.479  1.00  0.00     0.003 A 
ATOM     17  C10 UNK     1       3.396  33.623 236.187  1.00  0.00     0.015 A 
ENDBRANCH   2  11
TORSDOF 4
ENDMDL
MODEL 4
REMARK VINA RESULT:      -5.4      6.931      8.410
REMARK  4 active torsions:
REMARK  status: ('A' for Active; 'I' for Inactive)
REMARK    1  A    between atoms: N1_3  and  C1_4 
REMARK    2  A    between atoms: N1_3  and  C2_5 
REMARK    3  A    between atoms: C2_5  and  C7_10 
REMARK    4  A    between atoms: C7_10  and  C8_11 
ROOT
ATOM      1  O1  UNK     1       2.266  36.382 233.542  1.00  0.00    -0.290 OA
ATOM      2  C7  UNK     1       1.199  35.771 233.489  1.00  0.00     0.192 C 
ENDROOT
BRANCH   2   3
ATOM      3  C2  UNK     1       0.024  36.124 234.395  1.00  0.00     0.291 C 
ATOM      4  C6  UNK     1      -1.219  36.410 233.560  1.00  0.00     0.051 C 
BRANCH   3   5
ATOM      5  N1  UNK     1       0.394  37.314 235.141  1.00  0.00     0.103 N 
ATOM      6  H1  UNK     1       1.393  37.474 235.014  1.00  0.00     0.317 HD
BRANCH   5   7
ATOM      7  C1  UNK     1       0.104  37.138 236.568  1.00  0.00     0.148 C 
ATOM      8  C3  UNK     1       1.362  37.486 237.370  1.00  0.00     0.048 C 
ATOM      9  C4  UNK     1      -1.042  38.081 236.953  1.00  0.00     0.048 C 
ATOM     10  C5  UNK     1      -0.302  35.683 236.829  1.00  0.00     0.048 C 
ENDBRANCH   5   7
ENDBRANCH   3   5
ENDBRANCH   2   3
BRANCH   2  11
ATOM     11  C8  UNK     1       1.056  34.666 232.495  1.00  0.00     0.014 A 
ATOM     12  C9  UNK     1       0.854  33.386 232.957  1.00  0.00     0.039 A 
ATOM     13  C11 UNK     1       0.719  32.354 232.027  1.00  0.00     0.035 A 
ATOM     14 Cl1  UNK     1       0.464  30.739 232.563  1.00  0.00    -0.084 Cl
ATOM     15  C13 UNK     1       0.791  32.632 230.663  1.00  0.00     0.024 A 
ATOM     16  C12 UNK     1       0.999  33.941 230.226  1.00  0.00     0.003 A 
ATOM     17  C10 UNK     1       1.133  34.972 231.156  1.00  0.00     0.015 A 
ENDBRANCH   2  11
TORSDOF 4
ENDMDL
MODEL 5
REMARK VINA RESULT:      -5.4      7.495      9.300
REMARK  4 active torsions:
REMARK  status: ('A' for Active; 'I' for Inactive)
REMARK    1  A    between atoms: N1_3  and  C1_4 
REMARK    2  A    between atoms: N1_3  and  C2_5 
REMARK    3  A    between atoms: C2_5  and  C7_10 
REMARK    4  A    between atoms: C7_10  and  C8_11 
ROOT
ATOM      1  O1  UNK     1       1.317  35.470 232.605  1.00  0.00    -0.290 OA
ATOM      2  C7  UNK     1       1.029  35.285 233.787  1.00  0.00     0.192 C 
ENDROOT
BRANCH   2   3
ATOM      3  C2  UNK     1      -0.187  35.944 234.431  1.00  0.00     0.291 C 
ATOM      4  C6  UNK     1      -1.233  36.269 233.373  1.00  0.00     0.051 C 
BRANCH   3   5
ATOM      5  N1  UNK     1       0.268  37.171 235.062  1.00  0.00     0.103 N 
ATOM      6  H1  UNK     1       1.282  37.224 234.966  1.00  0.00     0.317 HD
BRANCH   5   7
ATOM      7  C1  UNK     1      -0.091  37.184 236.484  1.00  0.00     0.148 C 
ATOM      8  C3  UNK     1      -0.606  35.793 236.871  1.00  0.00     0.048 C 
ATOM      9  C4  UNK     1       1.161  37.526 237.299  1.00  0.00     0.048 C 
ATOM     10  C5  UNK     1      -1.180  38.236 236.725  1.00  0.00     0.048 C 
ENDBRANCH   5   7
ENDBRANCH   3   5
ENDBRANCH   2   3
BRANCH   2  11
ATOM     11  C8  UNK     1       1.889  34.375 234.599  1.00  0.00     0.014 A 
ATOM     12  C9  UNK     1       1.691  33.017 234.499  1.00  0.00     0.039 A 
ATOM     13  C11 UNK     1       2.497  32.167 235.258  1.00  0.00     0.035 A 
ATOM     14 Cl1  UNK     1       2.281  30.462 235.161  1.00  0.00    -0.084 Cl
ATOM     15  C13 UNK     1       3.477  32.699 236.094  1.00  0.00     0.024 A 
ATOM     16  C12 UNK     1       3.653  34.081 236.174  1.00  0.00     0.003 A 
ATOM     17  C10 UNK     1       2.847  34.931 235.415  1.00  0.00     0.015 A 
ENDBRANCH   2  11
TORSDOF 4
ENDMDL
MODEL 6
REMARK VINA RESULT:      -5.2      1.356      2.090
REMARK  4 active torsions:
REMARK  status: ('A' for Active; 'I' for Inactive)
REMARK    1  A    between atoms: N1_3  and  C1_4 
REMARK    2  A    between atoms: N1_3  and  C2_5 
REMARK    3  A    between atoms: C2_5  and  C7_10 
REMARK    4  A    between atoms: C7_10  and  C8_11 
ROOT
ATOM      1  O1  UNK     1      -1.171  41.661 228.996  1.00  0.00    -0.290 OA
ATOM      2  C7  UNK     1      -0.615  40.711 228.445  1.00  0.00     0.192 C 
ENDROOT
BRANCH   2   3
ATOM      3  C2  UNK     1      -1.389  39.475 227.999  1.00  0.00     0.291 C 
ATOM      4  C6  UNK     1      -2.421  39.851 226.943  1.00  0.00     0.051 C 
BRANCH   3   5
ATOM      5  N1  UNK     1      -2.063  38.939 229.170  1.00  0.00     0.103 N 
ATOM      6  H1  UNK     1      -1.660  39.375 229.999  1.00  0.00     0.317 HD
BRANCH   5   7
ATOM      7  C1  UNK     1      -1.885  37.485 229.246  1.00  0.00     0.148 C 
ATOM      8  C3  UNK     1      -1.675  37.094 230.712  1.00  0.00     0.048 C 
ATOM      9  C4  UNK     1      -3.147  36.809 228.697  1.00  0.00     0.048 C 
ATOM     10  C5  UNK     1      -0.665  37.077 228.411  1.00  0.00     0.048 C 
ENDBRANCH   5   7
ENDBRANCH   3   5
ENDBRANCH   2   3
BRANCH   2  11
ATOM     11  C8  UNK     1       0.854  40.788 228.197  1.00  0.00     0.014 A 
ATOM     12  C9  UNK     1       1.495  39.685 227.682  1.00  0.00     0.039 A 
ATOM     13  C11 UNK     1       2.869  39.759 227.448  1.00  0.00     0.035 A 
ATOM     14 Cl1  UNK     1       3.708  38.401 226.804  1.00  0.00    -0.084 Cl
ATOM     15  C13 UNK     1       3.563  40.933 227.737  1.00  0.00     0.024 A 
ATOM     16  C12 UNK     1       2.885  42.035 228.260  1.00  0.00     0.003 A 
ATOM     17  C10 UNK     1       1.511  41.961 228.492  1.00  0.00     0.015 A 
ENDBRANCH   2  11
TORSDOF 4
ENDMDL
MODEL 7
REMARK VINA RESULT:      -5.2      7.900      9.514
REMARK  4 active torsions:
REMARK  status: ('A' for Active; 'I' for Inactive)
REMARK    1  A    between atoms: N1_3  and  C1_4 
REMARK    2  A    between atoms: N1_3  and  C2_5 
REMARK    3  A    between atoms: C2_5  and  C7_10 
REMARK    4  A    between atoms: C7_10  and  C8_11 
ROOT
ATOM      1  O1  UNK     1       0.860  38.270 236.463  1.00  0.00    -0.290 OA
ATOM      2  C7  UNK     1       1.354  37.152 236.320  1.00  0.00     0.192 C 
ENDROOT
BRANCH   2   3
ATOM      3  C2  UNK     1       0.896  36.204 235.217  1.00  0.00     0.291 C 
ATOM      4  C6  UNK     1       1.831  36.298 234.018  1.00  0.00     0.051 C 
BRANCH   3   5
ATOM      5  N1  UNK     1      -0.443  36.611 234.824  1.00  0.00     0.103 N 
ATOM      6  H1  UNK     1      -0.665  37.486 235.300  1.00  0.00     0.317 HD
BRANCH   5   7
ATOM      7  C1  UNK     1      -1.423  35.587 235.200  1.00  0.00     0.148 C 
ATOM      8  C3  UNK     1      -2.461  35.468 234.079  1.00  0.00     0.048 C 
ATOM      9  C4  UNK     1      -0.690  34.253 235.381  1.00  0.00     0.048 C 
ATOM     10  C5  UNK     1      -2.107  35.994 236.510  1.00  0.00     0.048 C 
ENDBRANCH   5   7
ENDBRANCH   3   5
ENDBRANCH   2   3
BRANCH   2  11
ATOM     11  C8  UNK     1       2.444  36.729 237.248  1.00  0.00     0.014 A 
ATOM     12  C9  UNK     1       2.387  35.471 237.803  1.00  0.00     0.039 A 
ATOM     13  C11 UNK     1       3.407  35.076 238.669  1.00  0.00     0.035 A 
ATOM     14 Cl1  UNK     1       3.373  33.511 239.383  1.00  0.00    -0.084 Cl
ATOM     15  C13 UNK     1       4.455  35.950 238.956  1.00  0.00     0.024 A 
ATOM     16  C12 UNK     1       4.484  37.220 238.378  1.00  0.00     0.003 A 
ATOM     17  C10 UNK     1       3.464  37.614 237.511  1.00  0.00     0.015 A 
ENDBRANCH   2  11
TORSDOF 4
ENDMDL
MODEL 8
REMARK VINA RESULT:      -5.1      7.196      9.127
REMARK  4 active torsions:
REMARK  status: ('A' for Active; 'I' for Inactive)
REMARK    1  A    between atoms: N1_3  and  C1_4 
REMARK    2  A    between atoms: N1_3  and  C2_5 
REMARK    3  A    between atoms: C2_5  and  C7_10 
REMARK    4  A    between atoms: C7_10  and  C8_11 
ROOT
ATOM      1  O1  UNK     1      -1.202  36.747 235.275  1.00  0.00    -0.290 OA
ATOM      2  C7  UNK     1      -0.102  36.216 235.429  1.00  0.00     0.192 C 
ENDROOT
BRANCH   2   3
ATOM      3  C2  UNK     1       0.817  36.590 236.587  1.00  0.00     0.291 C 
ATOM      4  C6  UNK     1       0.367  37.904 237.213  1.00  0.00     0.051 C 
BRANCH   3   5
ATOM      5  N1  UNK     1       2.157  36.741 236.046  1.00  0.00     0.103 N 
ATOM      6  H1  UNK     1       2.158  36.386 235.090  1.00  0.00     0.317 HD
BRANCH   5   7
ATOM      7  C1  UNK     1       3.124  35.986 236.850  1.00  0.00     0.148 C 
ATOM      8  C3  UNK     1       3.931  35.076 235.918  1.00  0.00     0.048 C 
ATOM      9  C4  UNK     1       4.058  36.981 237.550  1.00  0.00     0.048 C 
ATOM     10  C5  UNK     1       2.375  35.145 237.891  1.00  0.00     0.048 C 
ENDBRANCH   5   7
ENDBRANCH   3   5
ENDBRANCH   2   3
BRANCH   2  11
ATOM     11  C8  UNK     1       0.326  35.165 234.460  1.00  0.00     0.014 A 
ATOM     12  C9  UNK     1       0.641  35.542 233.174  1.00  0.00     0.039 A 
ATOM     13  C11 UNK     1       1.043  34.558 232.270  1.00  0.00     0.035 A 
ATOM     14 Cl1  UNK     1       1.447  34.988 230.653  1.00  0.00    -0.084 Cl
ATOM     15  C13 UNK     1       1.117  33.226 232.675  1.00  0.00     0.024 A 
ATOM     16  C12 UNK     1       0.788  32.876 233.985  1.00  0.00     0.003 A 
ATOM     17  C10 UNK     1       0.388  33.859 234.890  1.00  0.00     0.015 A 
ENDBRANCH   2  11
TORSDOF 4
ENDMDL
MODEL 9
REMARK VINA RESULT:      -5.1      7.858      9.683
REMARK  4 active torsions:
REMARK  status: ('A' for Active; 'I' for Inactive)
REMARK    1  A    between atoms: N1_3  and  C1_4 
REMARK    2  A    between atoms: N1_3  and  C2_5 
REMARK    3  A    between atoms: C2_5  and  C7_10 
REMARK    4  A    between atoms: C7_10  and  C8_11 
ROOT
ATOM      1  O1  UNK     1      -0.199  38.298 236.834  1.00  0.00    -0.290 OA
ATOM      2  C7  UNK     1       0.015  37.108 236.601  1.00  0.00     0.192 C 
ENDROOT
BRANCH   2   3
ATOM      3  C2  UNK     1       1.315  36.428 237.018  1.00  0.00     0.291 C 
ATOM      4  C6  UNK     1       2.315  37.462 237.517  1.00  0.00     0.051 C 
BRANCH   3   5
ATOM      5  N1  UNK     1       1.850  35.758 235.845  1.00  0.00     0.103 N 
ATOM      6  H1  UNK     1       1.150  35.802 235.104  1.00  0.00     0.317 HD
BRANCH   5   7
ATOM      7  C1  UNK     1       2.155  34.355 236.147  1.00  0.00     0.148 C 
ATOM      8  C3  UNK     1       1.518  33.472 235.069  1.00  0.00     0.048 C 
ATOM      9  C4  UNK     1       3.677  34.175 236.142  1.00  0.00     0.048 C 
ATOM     10  C5  UNK     1       1.587  33.996 237.526  1.00  0.00     0.048 C 
ENDBRANCH   5   7
ENDBRANCH   3   5
ENDBRANCH   2   3
BRANCH   2  11
ATOM     11  C8  UNK     1      -1.041  36.315 235.905  1.00  0.00     0.014 A 
ATOM     12  C9  UNK     1      -1.290  36.571 234.576  1.00  0.00     0.039 A 
ATOM     13  C11 UNK     1      -2.276  35.828 233.927  1.00  0.00     0.035 A 
ATOM     14 Cl1  UNK     1      -2.618  36.116 232.265  1.00  0.00    -0.084 Cl
ATOM     15  C13 UNK     1      -2.986  34.851 234.624  1.00  0.00     0.024 A 
ATOM     16  C12 UNK     1      -2.711  34.617 235.972  1.00  0.00     0.003 A 
ATOM     17  C10 UNK     1      -1.724  35.359 236.621  1.00  0.00     0.015 A 
ENDBRANCH   2  11
TORSDOF 4
ENDMDL
