MODEL 1
REMARK VINA RESULT:      -5.9      0.000      0.000
REMARK  11 active torsions:
REMARK  status: ('A' for Active; 'I' for Inactive)
REMARK    1  A    between atoms: O1_1  and  C7_16 
REMARK    2  A    between atoms: O1_1  and  C14_23 
REMARK    3  A    between atoms: O2_2  and  C11_20 
REMARK    4  A    between atoms: N2_8  and  C13_22 
REMARK    5  A    between atoms: N2_8  and  C17_26 
REMARK    6  A    between atoms: N3_9  and  C15_24 
REMARK    7  A    between atoms: C1_10  and  C4_13 
REMARK    8  A    between atoms: C2_11  and  C7_16 
REMARK    9  A    between atoms: C3_12  and  C11_20 
REMARK   10  A    between atoms: C13_22  and  C14_23 
REMARK   11  A    between atoms: C17_26  and  C19_28 
ROOT
ATOM      1  N1  UNK     1      -0.543  36.936 235.137  1.00  0.00    -0.362 N 
ATOM      2  C1  UNK     1       1.753  35.286 234.953  1.00  0.00     0.101 C 
ATOM      3  C2  UNK     1       0.724  35.427 233.825  1.00  0.00     0.052 C 
ATOM      4  C3  UNK     1       1.498  36.250 236.117  1.00  0.00     0.052 C 
ATOM      5  C5  UNK     1      -0.365  36.217 233.965  1.00  0.00     0.018 C 
ATOM      6  C6  UNK     1       0.373  36.997 236.174  1.00  0.00     0.018 C 
ATOM      7  C10 UNK     1      -1.451  36.395 232.938  1.00  0.00     0.069 C 
ATOM      8  C12 UNK     1       0.002  37.932 237.293  1.00  0.00     0.069 C 
ATOM      9  H2  UNK     1      -1.378  37.505 235.214  1.00  0.00     0.165 HD
ENDROOT
BRANCH   3  10
ATOM     10  C7  UNK     1       1.018  34.713 232.572  1.00  0.00     0.292 C 
ATOM     11  O3  UNK     1       1.651  35.204 231.656  1.00  0.00    -0.259 OA
BRANCH  10  12
ATOM     12  O1  UNK     1       0.474  33.475 232.646  1.00  0.00    -0.316 OA
BRANCH  12  13
ATOM     13  C14 UNK     1      -0.376  33.119 231.551  1.00  0.00     0.209 C 
BRANCH  13  14
ATOM     14  C13 UNK     1      -1.795  32.950 232.067  1.00  0.00     0.299 C 
BRANCH  14  15
ATOM     15  N2  UNK     1      -1.792  32.379 233.407  1.00  0.00     0.090 N 
ATOM     16  C20 UNK     1      -1.491  30.947 233.358  1.00  0.00     0.310 C 
BRANCH  15  17
ATOM     17  C17 UNK     1      -3.078  32.605 234.070  1.00  0.00     0.310 C 
BRANCH  17  18
ATOM     18  C19 UNK     1      -2.904  32.996 235.513  1.00  0.00    -0.030 A 
ATOM     19  C21 UNK     1      -2.974  32.025 236.512  1.00  0.00     0.009 A 
ATOM     20  C24 UNK     1      -2.813  32.386 237.850  1.00  0.00     0.001 A 
ATOM     21  C26 UNK     1      -2.581  33.719 238.189  1.00  0.00     0.000 A 
ATOM     22  C25 UNK     1      -2.511  34.691 237.190  1.00  0.00     0.001 A 
ATOM     23  C22 UNK     1      -2.672  34.329 235.852  1.00  0.00     0.009 A 
ENDBRANCH  17  18
ENDBRANCH  15  17
ENDBRANCH  14  15
ENDBRANCH  13  14
ENDBRANCH  12  13
ENDBRANCH  10  12
ENDBRANCH   3  10
BRANCH   2  24
ATOM     24  C4  UNK     1       1.771  33.870 235.455  1.00  0.00    -0.042 A 
ATOM     25  C8  UNK     1       2.937  33.110 235.359  1.00  0.00     0.044 A 
ATOM     26  C15 UNK     1       2.952  31.795 235.825  1.00  0.00     0.103 A 
ATOM     27  C18 UNK     1       1.802  31.240 236.386  1.00  0.00     0.036 A 
ATOM     28  C16 UNK     1       0.636  32.000 236.482  1.00  0.00     0.003 A 
ATOM     29  C9  UNK     1       0.621  33.315 236.016  1.00  0.00     0.008 A 
BRANCH  26  30
ATOM     30  N3  UNK     1       4.139  31.021 235.729  1.00  0.00    -0.116 N 
ATOM     31  O5  UNK     1       4.690  30.890 234.609  1.00  0.00    -0.532 OA
ATOM     32  O6  UNK     1       4.605  30.491 236.766  1.00  0.00    -0.532 OA
ENDBRANCH  26  30
ENDBRANCH   2  24
BRANCH   4  33
ATOM     33  C11 UNK     1       2.559  36.351 237.132  1.00  0.00     0.291 C 
ATOM     34  O4  UNK     1       2.661  35.584 238.073  1.00  0.00    -0.260 OA
BRANCH  33  35
ATOM     35  O2  UNK     1       3.349  37.407 236.822  1.00  0.00    -0.323 OA
ATOM     36  C23 UNK     1       4.352  37.721 237.793  1.00  0.00     0.213 C 
ENDBRANCH  33  35
ENDBRANCH   4  33
TORSDOF 11
ENDMDL
MODEL 2
REMARK VINA RESULT:      -5.7      3.942      8.261
REMARK  11 active torsions:
REMARK  status: ('A' for Active; 'I' for Inactive)
REMARK    1  A    between atoms: O1_1  and  C7_16 
REMARK    2  A    between atoms: O1_1  and  C14_23 
REMARK    3  A    between atoms: O2_2  and  C11_20 
REMARK    4  A    between atoms: N2_8  and  C13_22 
REMARK    5  A    between atoms: N2_8  and  C17_26 
REMARK    6  A    between atoms: N3_9  and  C15_24 
REMARK    7  A    between atoms: C1_10  and  C4_13 
REMARK    8  A    between atoms: C2_11  and  C7_16 
REMARK    9  A    between atoms: C3_12  and  C11_20 
REMARK   10  A    between atoms: C13_22  and  C14_23 
REMARK   11  A    between atoms: C17_26  and  C19_28 
ROOT
ATOM      1  N1  UNK     1      -2.068  32.911 229.867  1.00  0.00    -0.362 N 
ATOM      2  C1  UNK     1      -1.159  35.592 229.759  1.00  0.00     0.101 C 
ATOM      3  C2  UNK     1      -2.079  35.058 230.863  1.00  0.00     0.052 C 
ATOM      4  C3  UNK     1      -0.655  34.492 228.819  1.00  0.00     0.052 C 
ATOM      5  C5  UNK     1      -2.498  33.772 230.865  1.00  0.00     0.018 C 
ATOM      6  C6  UNK     1      -1.140  33.232 228.891  1.00  0.00     0.018 C 
ATOM      7  C10 UNK     1      -3.428  33.159 231.877  1.00  0.00     0.069 C 
ATOM      8  C12 UNK     1      -0.752  32.095 227.986  1.00  0.00     0.069 C 
ATOM      9  H2  UNK     1      -2.415  31.958 229.890  1.00  0.00     0.165 HD
ENDROOT
BRANCH   3  10
ATOM     10  C7  UNK     1      -2.422  35.995 231.945  1.00  0.00     0.292 C 
ATOM     11  O3  UNK     1      -3.492  36.573 232.014  1.00  0.00    -0.259 OA
BRANCH  10  12
ATOM     12  O1  UNK     1      -1.369  36.076 232.793  1.00  0.00    -0.316 OA
BRANCH  12  13
ATOM     13  C14 UNK     1      -1.710  36.125 234.182  1.00  0.00     0.209 C 
BRANCH  13  14
ATOM     14  C13 UNK     1      -0.441  36.337 234.990  1.00  0.00     0.299 C 
BRANCH  14  15
ATOM     15  N2  UNK     1       0.169  35.060 235.336  1.00  0.00     0.090 N 
ATOM     16  C20 UNK     1       0.458  34.997 236.770  1.00  0.00     0.310 C 
BRANCH  15  17
ATOM     17  C17 UNK     1       1.393  34.843 234.562  1.00  0.00     0.310 C 
BRANCH  17  18
ATOM     18  C19 UNK     1       1.366  33.531 233.825  1.00  0.00    -0.030 A 
ATOM     19  C21 UNK     1       1.836  32.373 234.445  1.00  0.00     0.009 A 
ATOM     20  C24 UNK     1       1.810  31.156 233.762  1.00  0.00     0.001 A 
ATOM     21  C26 UNK     1       1.315  31.098 232.460  1.00  0.00     0.000 A 
ATOM     22  C25 UNK     1       0.846  32.257 231.839  1.00  0.00     0.001 A 
ATOM     23  C22 UNK     1       0.871  33.473 232.522  1.00  0.00     0.009 A 
ENDBRANCH  17  18
ENDBRANCH  15  17
ENDBRANCH  14  15
ENDBRANCH  13  14
ENDBRANCH  12  13
ENDBRANCH  10  12
ENDBRANCH   3  10
BRANCH   2  24
ATOM     24  C4  UNK     1      -1.871  36.654 228.971  1.00  0.00    -0.042 A 
ATOM     25  C8  UNK     1      -1.423  37.974 229.015  1.00  0.00     0.044 A 
ATOM     26  C15 UNK     1      -2.086  38.960 228.282  1.00  0.00     0.103 A 
ATOM     27  C18 UNK     1      -3.195  38.625 227.505  1.00  0.00     0.036 A 
ATOM     28  C16 UNK     1      -3.643  37.304 227.461  1.00  0.00     0.003 A 
ATOM     29  C9  UNK     1      -2.980  36.319 228.194  1.00  0.00     0.008 A 
BRANCH  26  30
ATOM     30  N3  UNK     1      -1.630  40.304 228.326  1.00  0.00    -0.116 N 
ATOM     31  O5  UNK     1      -2.159  41.150 227.564  1.00  0.00    -0.532 OA
ATOM     32  O6  UNK     1      -0.713  40.609 229.125  1.00  0.00    -0.532 OA
ENDBRANCH  26  30
ENDBRANCH   2  24
BRANCH   4  33
ATOM     33  C11 UNK     1       0.411  34.870 227.876  1.00  0.00     0.291 C 
ATOM     34  O4  UNK     1       0.307  34.757 226.668  1.00  0.00    -0.260 OA
BRANCH  33  35
ATOM     35  O2  UNK     1       1.464  35.338 228.588  1.00  0.00    -0.323 OA
ATOM     36  C23 UNK     1       2.579  35.777 227.805  1.00  0.00     0.213 C 
ENDBRANCH  33  35
ENDBRANCH   4  33
TORSDOF 11
ENDMDL
MODEL 3
REMARK VINA RESULT:      -5.7      3.891      8.330
REMARK  11 active torsions:
REMARK  status: ('A' for Active; 'I' for Inactive)
REMARK    1  A    between atoms: O1_1  and  C7_16 
REMARK    2  A    between atoms: O1_1  and  C14_23 
REMARK    3  A    between atoms: O2_2  and  C11_20 
REMARK    4  A    between atoms: N2_8  and  C13_22 
REMARK    5  A    between atoms: N2_8  and  C17_26 
REMARK    6  A    between atoms: N3_9  and  C15_24 
REMARK    7  A    between atoms: C1_10  and  C4_13 
REMARK    8  A    between atoms: C2_11  and  C7_16 
REMARK    9  A    between atoms: C3_12  and  C11_20 
REMARK   10  A    between atoms: C13_22  and  C14_23 
REMARK   11  A    between atoms: C17_26  and  C19_28 
ROOT
ATOM      1  N1  UNK     1      -1.403  33.026 230.557  1.00  0.00    -0.362 N 
ATOM      2  C1  UNK     1      -0.896  35.802 230.310  1.00  0.00     0.101 C 
ATOM      3  C2  UNK     1      -1.864  35.210 231.341  1.00  0.00     0.052 C 
ATOM      4  C3  UNK     1      -0.113  34.731 229.544  1.00  0.00     0.052 C 
ATOM      5  C5  UNK     1      -2.084  33.878 231.411  1.00  0.00     0.018 C 
ATOM      6  C6  UNK     1      -0.411  33.418 229.673  1.00  0.00     0.018 C 
ATOM      7  C10 UNK     1      -3.039  33.201 232.357  1.00  0.00     0.069 C 
ATOM      8  C12 UNK     1       0.258  32.294 228.930  1.00  0.00     0.069 C 
ATOM      9  H2  UNK     1      -1.604  32.034 230.626  1.00  0.00     0.165 HD
ENDROOT
BRANCH   3  10
ATOM     10  C7  UNK     1      -2.484  36.158 232.282  1.00  0.00     0.292 C 
ATOM     11  O3  UNK     1      -3.684  36.356 232.338  1.00  0.00    -0.259 OA
BRANCH  10  12
ATOM     12  O1  UNK     1      -1.505  36.726 233.025  1.00  0.00    -0.316 OA
BRANCH  12  13
ATOM     13  C14 UNK     1      -1.479  36.333 234.400  1.00  0.00     0.209 C 
BRANCH  13  14
ATOM     14  C13 UNK     1      -0.044  36.022 234.794  1.00  0.00     0.299 C 
BRANCH  14  15
ATOM     15  N2  UNK     1       0.292  36.659 236.060  1.00  0.00     0.090 N 
ATOM     16  C20 UNK     1      -0.742  37.623 236.444  1.00  0.00     0.310 C 
BRANCH  15  17
ATOM     17  C17 UNK     1       1.596  37.320 235.977  1.00  0.00     0.310 C 
BRANCH  17  18
ATOM     18  C19 UNK     1       2.536  36.841 237.051  1.00  0.00    -0.030 A 
ATOM     19  C21 UNK     1       2.350  35.588 237.633  1.00  0.00     0.009 A 
ATOM     20  C24 UNK     1       3.221  35.143 238.628  1.00  0.00     0.001 A 
ATOM     21  C26 UNK     1       4.279  35.953 239.041  1.00  0.00     0.000 A 
ATOM     22  C25 UNK     1       4.466  37.208 238.459  1.00  0.00     0.001 A 
ATOM     23  C22 UNK     1       3.595  37.652 237.464  1.00  0.00     0.009 A 
ENDBRANCH  17  18
ENDBRANCH  15  17
ENDBRANCH  14  15
ENDBRANCH  13  14
ENDBRANCH  12  13
ENDBRANCH  10  12
ENDBRANCH   3  10
BRANCH   2  24
ATOM     24  C4  UNK     1      -1.646  36.677 229.347  1.00  0.00    -0.042 A 
ATOM     25  C8  UNK     1      -1.360  38.040 229.273  1.00  0.00     0.044 A 
ATOM     26  C15 UNK     1      -2.058  38.852 228.378  1.00  0.00     0.103 A 
ATOM     27  C18 UNK     1      -3.042  38.300 227.557  1.00  0.00     0.036 A 
ATOM     28  C16 UNK     1      -3.328  36.937 227.631  1.00  0.00     0.003 A 
ATOM     29  C9  UNK     1      -2.630  36.126 228.526  1.00  0.00     0.008 A 
BRANCH  26  30
ATOM     30  N3  UNK     1      -1.767  40.239 228.302  1.00  0.00    -0.116 N 
ATOM     31  O5  UNK     1      -1.004  40.749 229.159  1.00  0.00    -0.532 OA
ATOM     32  O6  UNK     1      -2.278  40.918 227.379  1.00  0.00    -0.532 OA
ENDBRANCH  26  30
ENDBRANCH   2  24
BRANCH   4  33
ATOM     33  C11 UNK     1       1.001  35.203 228.705  1.00  0.00     0.291 C 
ATOM     34  O4  UNK     1       2.079  35.544 229.155  1.00  0.00    -0.260 OA
BRANCH  33  35
ATOM     35  O2  UNK     1       0.600  35.181 227.411  1.00  0.00    -0.323 OA
ATOM     36  C23 UNK     1       1.628  34.877 226.463  1.00  0.00     0.213 C 
ENDBRANCH  33  35
ENDBRANCH   4  33
TORSDOF 11
ENDMDL
MODEL 4
REMARK VINA RESULT:      -5.7      1.976      4.269
REMARK  11 active torsions:
REMARK  status: ('A' for Active; 'I' for Inactive)
REMARK    1  A    between atoms: O1_1  and  C7_16 
REMARK    2  A    between atoms: O1_1  and  C14_23 
REMARK    3  A    between atoms: O2_2  and  C11_20 
REMARK    4  A    between atoms: N2_8  and  C13_22 
REMARK    5  A    between atoms: N2_8  and  C17_26 
REMARK    6  A    between atoms: N3_9  and  C15_24 
REMARK    7  A    between atoms: C1_10  and  C4_13 
REMARK    8  A    between atoms: C2_11  and  C7_16 
REMARK    9  A    between atoms: C3_12  and  C11_20 
REMARK   10  A    between atoms: C13_22  and  C14_23 
REMARK   11  A    between atoms: C17_26  and  C19_28 
ROOT
ATOM      1  N1  UNK     1      -0.849  36.944 234.814  1.00  0.00    -0.362 N 
ATOM      2  C1  UNK     1       1.542  35.430 234.681  1.00  0.00     0.101 C 
ATOM      3  C2  UNK     1       0.521  35.496 233.539  1.00  0.00     0.052 C 
ATOM      4  C3  UNK     1       1.216  36.392 235.829  1.00  0.00     0.052 C 
ATOM      5  C5  UNK     1      -0.613  36.222 233.655  1.00  0.00     0.018 C 
ATOM      6  C6  UNK     1       0.048  37.072 235.862  1.00  0.00     0.018 C 
ATOM      7  C10 UNK     1      -1.694  36.324 232.612  1.00  0.00     0.069 C 
ATOM      8  C12 UNK     1      -0.391  37.998 236.963  1.00  0.00     0.069 C 
ATOM      9  H2  UNK     1      -1.717  37.465 234.873  1.00  0.00     0.165 HD
ENDROOT
BRANCH   3  10
ATOM     10  C7  UNK     1       0.874  34.785 232.299  1.00  0.00     0.292 C 
ATOM     11  O3  UNK     1       1.695  35.199 231.501  1.00  0.00    -0.259 OA
BRANCH  10  12
ATOM     12  O1  UNK     1       0.142  33.647 232.235  1.00  0.00    -0.316 OA
BRANCH  12  13
ATOM     13  C14 UNK     1       0.897  32.450 232.025  1.00  0.00     0.209 C 
BRANCH  13  14
ATOM     14  C13 UNK     1       0.157  31.573 231.028  1.00  0.00     0.299 C 
BRANCH  14  15
ATOM     15  N2  UNK     1      -0.838  32.348 230.300  1.00  0.00     0.090 N 
ATOM     16  C20 UNK     1      -2.161  31.731 230.419  1.00  0.00     0.310 C 
BRANCH  15  17
ATOM     17  C17 UNK     1      -0.464  32.479 228.890  1.00  0.00     0.310 C 
BRANCH  17  18
ATOM     18  C19 UNK     1       0.183  33.807 228.602  1.00  0.00    -0.030 A 
ATOM     19  C21 UNK     1      -0.546  34.986 228.756  1.00  0.00     0.009 A 
ATOM     20  C24 UNK     1       0.054  36.217 228.489  1.00  0.00     0.001 A 
ATOM     21  C26 UNK     1       1.383  36.269 228.069  1.00  0.00     0.000 A 
ATOM     22  C25 UNK     1       2.112  35.089 227.913  1.00  0.00     0.001 A 
ATOM     23  C22 UNK     1       1.512  33.858 228.180  1.00  0.00     0.009 A 
ENDBRANCH  17  18
ENDBRANCH  15  17
ENDBRANCH  14  15
ENDBRANCH  13  14
ENDBRANCH  12  13
ENDBRANCH  10  12
ENDBRANCH   3  10
BRANCH   2  24
ATOM     24  C4  UNK     1       1.636  34.024 235.202  1.00  0.00    -0.042 A 
ATOM     25  C8  UNK     1       2.866  33.366 235.216  1.00  0.00     0.044 A 
ATOM     26  C15 UNK     1       2.953  32.059 235.699  1.00  0.00     0.103 A 
ATOM     27  C18 UNK     1       1.809  31.413 236.169  1.00  0.00     0.036 A 
ATOM     28  C16 UNK     1       0.580  32.071 236.155  1.00  0.00     0.003 A 
ATOM     29  C9  UNK     1       0.494  33.376 235.671  1.00  0.00     0.008 A 
BRANCH  26  30
ATOM     30  N3  UNK     1       4.204  31.389 235.715  1.00  0.00    -0.116 N 
ATOM     31  O5  UNK     1       4.667  30.940 234.639  1.00  0.00    -0.532 OA
ATOM     32  O6  UNK     1       4.814  31.266 236.805  1.00  0.00    -0.532 OA
ENDBRANCH  26  30
ENDBRANCH   2  24
BRANCH   4  33
ATOM     33  C11 UNK     1       2.256  36.568 236.856  1.00  0.00     0.291 C 
ATOM     34  O4  UNK     1       3.127  37.416 236.787  1.00  0.00    -0.260 OA
BRANCH  33  35
ATOM     35  O2  UNK     1       2.054  35.649 237.830  1.00  0.00    -0.323 OA
ATOM     36  C23 UNK     1       3.241  35.175 238.473  1.00  0.00     0.213 C 
ENDBRANCH  33  35
ENDBRANCH   4  33
TORSDOF 11
ENDMDL
MODEL 5
REMARK VINA RESULT:      -5.7      2.590      5.639
REMARK  11 active torsions:
REMARK  status: ('A' for Active; 'I' for Inactive)
REMARK    1  A    between atoms: O1_1  and  C7_16 
REMARK    2  A    between atoms: O1_1  and  C14_23 
REMARK    3  A    between atoms: O2_2  and  C11_20 
REMARK    4  A    between atoms: N2_8  and  C13_22 
REMARK    5  A    between atoms: N2_8  and  C17_26 
REMARK    6  A    between atoms: N3_9  and  C15_24 
REMARK    7  A    between atoms: C1_10  and  C4_13 
REMARK    8  A    between atoms: C2_11  and  C7_16 
REMARK    9  A    between atoms: C3_12  and  C11_20 
REMARK   10  A    between atoms: C13_22  and  C14_23 
REMARK   11  A    between atoms: C17_26  and  C19_28 
ROOT
ATOM      1  N1  UNK     1       0.585  36.552 234.715  1.00  0.00    -0.362 N 
ATOM      2  C1  UNK     1      -1.163  34.323 234.778  1.00  0.00     0.101 C 
ATOM      3  C2  UNK     1      -0.043  34.487 233.744  1.00  0.00     0.052 C 
ATOM      4  C3  UNK     1      -1.132  35.401 235.866  1.00  0.00     0.052 C 
ATOM      5  C5  UNK     1       0.757  35.577 233.746  1.00  0.00     0.018 C 
ATOM      6  C6  UNK     1      -0.299  36.463 235.778  1.00  0.00     0.018 C 
ATOM      7  C10 UNK     1       1.857  35.853 232.755  1.00  0.00     0.069 C 
ATOM      8  C12 UNK     1      -0.227  37.600 236.761  1.00  0.00     0.069 C 
ATOM      9  H2  UNK     1       1.192  37.363 234.677  1.00  0.00     0.165 HD
ENDROOT
BRANCH   3  10
ATOM     10  C7  UNK     1       0.151  33.374 232.801  1.00  0.00     0.292 C 
ATOM     11  O3  UNK     1      -0.380  33.325 231.706  1.00  0.00    -0.259 OA
BRANCH  10  12
ATOM     12  O1  UNK     1       0.989  32.474 233.367  1.00  0.00    -0.316 OA
BRANCH  12  13
ATOM     13  C14 UNK     1       0.443  31.163 233.544  1.00  0.00     0.209 C 
BRANCH  13  14
ATOM     14  C13 UNK     1       0.423  30.837 235.028  1.00  0.00     0.299 C 
BRANCH  14  15
ATOM     15  N2  UNK     1       1.623  31.341 235.682  1.00  0.00     0.090 N 
ATOM     16  C20 UNK     1       2.466  30.234 236.141  1.00  0.00     0.310 C 
BRANCH  15  17
ATOM     17  C17 UNK     1       1.274  32.212 236.807  1.00  0.00     0.310 C 
BRANCH  17  18
ATOM     18  C19 UNK     1       2.100  33.470 236.819  1.00  0.00    -0.030 A 
ATOM     19  C21 UNK     1       3.035  33.701 235.809  1.00  0.00     0.009 A 
ATOM     20  C24 UNK     1       3.801  34.867 235.820  1.00  0.00     0.001 A 
ATOM     21  C26 UNK     1       3.631  35.803 236.840  1.00  0.00     0.000 A 
ATOM     22  C25 UNK     1       2.697  35.572 237.851  1.00  0.00     0.001 A 
ATOM     23  C22 UNK     1       1.931  34.406 237.840  1.00  0.00     0.009 A 
ENDBRANCH  17  18
ENDBRANCH  15  17
ENDBRANCH  14  15
ENDBRANCH  13  14
ENDBRANCH  12  13
ENDBRANCH  10  12
ENDBRANCH   3  10
BRANCH   2  24
ATOM     24  C4  UNK     1      -2.498  34.325 234.091  1.00  0.00    -0.042 A 
ATOM     25  C8  UNK     1      -3.375  33.255 234.266  1.00  0.00     0.044 A 
ATOM     26  C15 UNK     1      -4.615  33.257 233.626  1.00  0.00     0.103 A 
ATOM     27  C18 UNK     1      -4.978  34.331 232.813  1.00  0.00     0.036 A 
ATOM     28  C16 UNK     1      -4.101  35.402 232.638  1.00  0.00     0.003 A 
ATOM     29  C9  UNK     1      -2.862  35.399 233.278  1.00  0.00     0.008 A 
BRANCH  26  30
ATOM     30  N3  UNK     1      -5.509  32.168 233.804  1.00  0.00    -0.116 N 
ATOM     31  O5  UNK     1      -6.095  31.693 232.801  1.00  0.00    -0.532 OA
ATOM     32  O6  UNK     1      -5.687  31.710 234.958  1.00  0.00    -0.532 OA
ENDBRANCH  26  30
ENDBRANCH   2  24
BRANCH   4  33
ATOM     33  C11 UNK     1      -2.018  35.194 237.024  1.00  0.00     0.291 C 
ATOM     34  O4  UNK     1      -3.020  35.854 237.227  1.00  0.00    -0.260 OA
BRANCH  33  35
ATOM     35  O2  UNK     1      -1.515  34.180 237.769  1.00  0.00    -0.323 OA
ATOM     36  C23 UNK     1      -2.492  33.295 238.327  1.00  0.00     0.213 C 
ENDBRANCH  33  35
ENDBRANCH   4  33
TORSDOF 11
ENDMDL
MODEL 6
REMARK VINA RESULT:      -5.6      2.387      4.580
REMARK  11 active torsions:
REMARK  status: ('A' for Active; 'I' for Inactive)
REMARK    1  A    between atoms: O1_1  and  C7_16 
REMARK    2  A    between atoms: O1_1  and  C14_23 
REMARK    3  A    between atoms: O2_2  and  C11_20 
REMARK    4  A    between atoms: N2_8  and  C13_22 
REMARK    5  A    between atoms: N2_8  and  C17_26 
REMARK    6  A    between atoms: N3_9  and  C15_24 
REMARK    7  A    between atoms: C1_10  and  C4_13 
REMARK    8  A    between atoms: C2_11  and  C7_16 
REMARK    9  A    between atoms: C3_12  and  C11_20 
REMARK   10  A    between atoms: C13_22  and  C14_23 
REMARK   11  A    between atoms: C17_26  and  C19_28 
ROOT
ATOM      1  N1  UNK     1       0.962  37.632 237.601  1.00  0.00    -0.362 N 
ATOM      2  C1  UNK     1       1.142  35.444 235.810  1.00  0.00     0.101 C 
ATOM      3  C2  UNK     1      -0.041  36.419 235.834  1.00  0.00     0.052 C 
ATOM      4  C3  UNK     1       2.285  35.871 236.737  1.00  0.00     0.052 C 
ATOM      5  C5  UNK     1      -0.089  37.441 236.718  1.00  0.00     0.018 C 
ATOM      6  C6  UNK     1       2.142  36.905 237.596  1.00  0.00     0.018 C 
ATOM      7  C10 UNK     1      -1.217  38.428 236.850  1.00  0.00     0.069 C 
ATOM      8  C12 UNK     1       3.178  37.372 238.581  1.00  0.00     0.069 C 
ATOM      9  H2  UNK     1       0.886  38.399 238.260  1.00  0.00     0.165 HD
ENDROOT
BRANCH   3  10
ATOM     10  C7  UNK     1      -1.079  36.220 234.810  1.00  0.00     0.292 C 
ATOM     11  O3  UNK     1      -0.988  36.648 233.674  1.00  0.00    -0.259 OA
BRANCH  10  12
ATOM     12  O1  UNK     1      -2.092  35.507 235.358  1.00  0.00    -0.316 OA
BRANCH  12  13
ATOM     13  C14 UNK     1      -2.984  34.898 234.420  1.00  0.00     0.209 C 
BRANCH  13  14
ATOM     14  C13 UNK     1      -2.497  33.490 234.122  1.00  0.00     0.299 C 
BRANCH  14  15
ATOM     15  N2  UNK     1      -2.268  33.316 232.694  1.00  0.00     0.090 N 
ATOM     16  C20 UNK     1      -3.397  32.620 232.072  1.00  0.00     0.310 C 
BRANCH  15  17
ATOM     17  C17 UNK     1      -1.025  32.581 232.454  1.00  0.00     0.310 C 
BRANCH  17  18
ATOM     18  C19 UNK     1      -0.149  33.275 231.446  1.00  0.00    -0.030 A 
ATOM     19  C21 UNK     1       0.654  34.346 231.840  1.00  0.00     0.009 A 
ATOM     20  C24 UNK     1       1.466  34.990 230.905  1.00  0.00     0.001 A 
ATOM     21  C26 UNK     1       1.476  34.562 229.578  1.00  0.00     0.000 A 
ATOM     22  C25 UNK     1       0.672  33.492 229.183  1.00  0.00     0.001 A 
ATOM     23  C22 UNK     1      -0.139  32.848 230.117  1.00  0.00     0.009 A 
ENDBRANCH  17  18
ENDBRANCH  15  17
ENDBRANCH  14  15
ENDBRANCH  13  14
ENDBRANCH  12  13
ENDBRANCH  10  12
ENDBRANCH   3  10
BRANCH   2  24
ATOM     24  C4  UNK     1       0.675  34.064 236.174  1.00  0.00    -0.042 A 
ATOM     25  C8  UNK     1      -0.122  33.871 237.303  1.00  0.00     0.044 A 
ATOM     26  C15 UNK     1      -0.555  32.588 237.640  1.00  0.00     0.103 A 
ATOM     27  C18 UNK     1      -0.192  31.499 236.848  1.00  0.00     0.036 A 
ATOM     28  C16 UNK     1       0.605  31.691 235.720  1.00  0.00     0.003 A 
ATOM     29  C9  UNK     1       1.038  32.974 235.383  1.00  0.00     0.008 A 
BRANCH  26  30
ATOM     30  N3  UNK     1      -1.367  32.392 238.788  1.00  0.00    -0.116 N 
ATOM     31  O5  UNK     1      -1.077  31.468 239.587  1.00  0.00    -0.532 OA
ATOM     32  O6  UNK     1      -2.350  33.148 238.974  1.00  0.00    -0.532 OA
ENDBRANCH  26  30
ENDBRANCH   2  24
BRANCH   4  33
ATOM     33  C11 UNK     1       3.550  35.129 236.607  1.00  0.00     0.291 C 
ATOM     34  O4  UNK     1       4.336  35.302 235.694  1.00  0.00    -0.260 OA
BRANCH  33  35
ATOM     35  O2  UNK     1       3.650  34.270 237.649  1.00  0.00    -0.323 OA
ATOM     36  C23 UNK     1       4.073  32.946 237.306  1.00  0.00     0.213 C 
ENDBRANCH  33  35
ENDBRANCH   4  33
TORSDOF 11
ENDMDL
MODEL 7
REMARK VINA RESULT:      -5.6      2.137      4.357
REMARK  11 active torsions:
REMARK  status: ('A' for Active; 'I' for Inactive)
REMARK    1  A    between atoms: O1_1  and  C7_16 
REMARK    2  A    between atoms: O1_1  and  C14_23 
REMARK    3  A    between atoms: O2_2  and  C11_20 
REMARK    4  A    between atoms: N2_8  and  C13_22 
REMARK    5  A    between atoms: N2_8  and  C17_26 
REMARK    6  A    between atoms: N3_9  and  C15_24 
REMARK    7  A    between atoms: C1_10  and  C4_13 
REMARK    8  A    between atoms: C2_11  and  C7_16 
REMARK    9  A    between atoms: C3_12  and  C11_20 
REMARK   10  A    between atoms: C13_22  and  C14_23 
REMARK   11  A    between atoms: C17_26  and  C19_28 
ROOT
ATOM      1  N1  UNK     1      -1.513  35.730 236.831  1.00  0.00    -0.362 N 
ATOM      2  C1  UNK     1       0.674  34.576 235.447  1.00  0.00     0.101 C 
ATOM      3  C2  UNK     1      -0.602  33.803 235.802  1.00  0.00     0.052 C 
ATOM      4  C3  UNK     1       0.575  36.070 235.771  1.00  0.00     0.052 C 
ATOM      5  C5  UNK     1      -1.614  34.394 236.477  1.00  0.00     0.018 C 
ATOM      6  C6  UNK     1      -0.476  36.570 236.459  1.00  0.00     0.018 C 
ATOM      7  C10 UNK     1      -2.888  33.717 236.906  1.00  0.00     0.069 C 
ATOM      8  C12 UNK     1      -0.644  38.007 236.873  1.00  0.00     0.069 C 
ATOM      9  H2  UNK     1      -2.283  36.137 237.350  1.00  0.00     0.165 HD
ENDROOT
BRANCH   3  10
ATOM     10  C7  UNK     1      -0.688  32.416 235.316  1.00  0.00     0.292 C 
ATOM     11  O3  UNK     1      -0.556  31.445 236.038  1.00  0.00    -0.259 OA
BRANCH  10  12
ATOM     12  O1  UNK     1      -0.932  32.444 233.984  1.00  0.00    -0.316 OA
BRANCH  12  13
ATOM     13  C14 UNK     1      -2.140  31.796 233.573  1.00  0.00     0.209 C 
BRANCH  13  14
ATOM     14  C13 UNK     1      -3.146  32.856 233.157  1.00  0.00     0.299 C 
BRANCH  14  15
ATOM     15  N2  UNK     1      -2.467  34.071 232.728  1.00  0.00     0.090 N 
ATOM     16  C20 UNK     1      -3.143  35.257 233.258  1.00  0.00     0.310 C 
BRANCH  15  17
ATOM     17  C17 UNK     1      -2.398  34.138 231.266  1.00  0.00     0.310 C 
BRANCH  17  18
ATOM     18  C19 UNK     1      -1.009  34.459 230.784  1.00  0.00    -0.030 A 
ATOM     19  C21 UNK     1       0.038  34.571 231.698  1.00  0.00     0.009 A 
ATOM     20  C24 UNK     1       1.326  34.868 231.251  1.00  0.00     0.001 A 
ATOM     21  C26 UNK     1       1.567  35.052 229.890  1.00  0.00     0.000 A 
ATOM     22  C25 UNK     1       0.519  34.941 228.975  1.00  0.00     0.001 A 
ATOM     23  C22 UNK     1      -0.769  34.643 229.422  1.00  0.00     0.009 A 
ENDBRANCH  17  18
ENDBRANCH  15  17
ENDBRANCH  14  15
ENDBRANCH  13  14
ENDBRANCH  12  13
ENDBRANCH  10  12
ENDBRANCH   3  10
BRANCH   2  24
ATOM     24  C4  UNK     1       1.851  33.974 236.158  1.00  0.00    -0.042 A 
ATOM     25  C8  UNK     1       1.963  34.088 237.544  1.00  0.00     0.044 A 
ATOM     26  C15 UNK     1       3.058  33.529 238.205  1.00  0.00     0.103 A 
ATOM     27  C18 UNK     1       4.040  32.855 237.479  1.00  0.00     0.036 A 
ATOM     28  C16 UNK     1       3.929  32.741 236.093  1.00  0.00     0.003 A 
ATOM     29  C9  UNK     1       2.835  33.300 235.433  1.00  0.00     0.008 A 
BRANCH  26  30
ATOM     30  N3  UNK     1       3.171  33.644 239.615  1.00  0.00    -0.116 N 
ATOM     31  O5  UNK     1       2.719  32.724 240.338  1.00  0.00    -0.532 OA
ATOM     32  O6  UNK     1       3.721  34.662 240.100  1.00  0.00    -0.532 OA
ENDBRANCH  26  30
ENDBRANCH   2  24
BRANCH   4  33
ATOM     33  C11 UNK     1       1.654  36.928 235.254  1.00  0.00     0.291 C 
ATOM     34  O4  UNK     1       2.066  36.869 234.109  1.00  0.00    -0.260 OA
BRANCH  33  35
ATOM     35  O2  UNK     1       2.066  37.745 236.253  1.00  0.00    -0.323 OA
ATOM     36  C23 UNK     1       3.254  37.324 236.930  1.00  0.00     0.213 C 
ENDBRANCH  33  35
ENDBRANCH   4  33
TORSDOF 11
ENDMDL
MODEL 8
REMARK VINA RESULT:      -5.6      2.890      4.886
REMARK  11 active torsions:
REMARK  status: ('A' for Active; 'I' for Inactive)
REMARK    1  A    between atoms: O1_1  and  C7_16 
REMARK    2  A    between atoms: O1_1  and  C14_23 
REMARK    3  A    between atoms: O2_2  and  C11_20 
REMARK    4  A    between atoms: N2_8  and  C13_22 
REMARK    5  A    between atoms: N2_8  and  C17_26 
REMARK    6  A    between atoms: N3_9  and  C15_24 
REMARK    7  A    between atoms: C1_10  and  C4_13 
REMARK    8  A    between atoms: C2_11  and  C7_16 
REMARK    9  A    between atoms: C3_12  and  C11_20 
REMARK   10  A    between atoms: C13_22  and  C14_23 
REMARK   11  A    between atoms: C17_26  and  C19_28 
ROOT
ATOM      1  N1  UNK     1      -0.559  36.825 235.142  1.00  0.00    -0.362 N 
ATOM      2  C1  UNK     1       1.815  35.288 234.979  1.00  0.00     0.101 C 
ATOM      3  C2  UNK     1       0.739  35.296 233.886  1.00  0.00     0.052 C 
ATOM      4  C3  UNK     1       1.551  36.317 236.083  1.00  0.00     0.052 C 
ATOM      5  C5  UNK     1      -0.385  36.036 234.016  1.00  0.00     0.018 C 
ATOM      6  C6  UNK     1       0.389  37.007 236.135  1.00  0.00     0.018 C 
ATOM      7  C10 UNK     1      -1.516  36.086 233.024  1.00  0.00     0.069 C 
ATOM      8  C12 UNK     1       0.009  37.997 237.201  1.00  0.00     0.069 C 
ATOM      9  H2  UNK     1      -1.421  37.355 235.213  1.00  0.00     0.165 HD
ENDROOT
BRANCH   3  10
ATOM     10  C7  UNK     1       1.026  34.513 232.674  1.00  0.00     0.292 C 
ATOM     11  O3  UNK     1       0.835  33.313 232.592  1.00  0.00    -0.259 OA
BRANCH  10  12
ATOM     12  O1  UNK     1       1.516  35.350 231.728  1.00  0.00    -0.316 OA
BRANCH  12  13
ATOM     13  C14 UNK     1       1.397  34.882 230.381  1.00  0.00     0.209 C 
BRANCH  13  14
ATOM     14  C13 UNK     1      -0.074  34.855 230.000  1.00  0.00     0.299 C 
BRANCH  14  15
ATOM     15  N2  UNK     1      -0.335  35.762 228.891  1.00  0.00     0.090 N 
ATOM     16  C20 UNK     1       0.920  36.213 228.285  1.00  0.00     0.310 C 
BRANCH  15  17
ATOM     17  C17 UNK     1      -1.125  36.912 229.336  1.00  0.00     0.310 C 
BRANCH  17  18
ATOM     18  C19 UNK     1      -2.355  37.108 228.490  1.00  0.00    -0.030 A 
ATOM     19  C21 UNK     1      -2.652  38.369 227.974  1.00  0.00     0.009 A 
ATOM     20  C24 UNK     1      -3.793  38.551 227.191  1.00  0.00     0.001 A 
ATOM     21  C26 UNK     1      -4.635  37.472 226.924  1.00  0.00     0.000 A 
ATOM     22  C25 UNK     1      -4.338  36.211 227.441  1.00  0.00     0.001 A 
ATOM     23  C22 UNK     1      -3.198  36.028 228.224  1.00  0.00     0.009 A 
ENDBRANCH  17  18
ENDBRANCH  15  17
ENDBRANCH  14  15
ENDBRANCH  13  14
ENDBRANCH  12  13
ENDBRANCH  10  12
ENDBRANCH   3  10
BRANCH   2  24
ATOM     24  C4  UNK     1       1.929  33.914 235.574  1.00  0.00    -0.042 A 
ATOM     25  C8  UNK     1       3.154  33.248 235.565  1.00  0.00     0.044 A 
ATOM     26  C15 UNK     1       3.259  31.971 236.117  1.00  0.00     0.103 A 
ATOM     27  C18 UNK     1       2.137  31.361 236.680  1.00  0.00     0.036 A 
ATOM     28  C16 UNK     1       0.912  32.027 236.690  1.00  0.00     0.003 A 
ATOM     29  C9  UNK     1       0.808  33.303 236.137  1.00  0.00     0.008 A 
BRANCH  26  30
ATOM     30  N3  UNK     1       4.506  31.293 236.109  1.00  0.00    -0.116 N 
ATOM     31  O5  UNK     1       5.238  31.355 237.126  1.00  0.00    -0.532 OA
ATOM     32  O6  UNK     1       4.841  30.649 235.086  1.00  0.00    -0.532 OA
ENDBRANCH  26  30
ENDBRANCH   2  24
BRANCH   4  33
ATOM     33  C11 UNK     1       2.641  36.543 237.046  1.00  0.00     0.291 C 
ATOM     34  O4  UNK     1       3.511  37.380 236.887  1.00  0.00    -0.260 OA
BRANCH  33  35
ATOM     35  O2  UNK     1       2.484  35.682 238.080  1.00  0.00    -0.323 OA
ATOM     36  C23 UNK     1       3.678  35.388 238.811  1.00  0.00     0.213 C 
ENDBRANCH  33  35
ENDBRANCH   4  33
TORSDOF 11
ENDMDL
MODEL 9
REMARK VINA RESULT:      -5.5      2.171      3.821
REMARK  11 active torsions:
REMARK  status: ('A' for Active; 'I' for Inactive)
REMARK    1  A    between atoms: O1_1  and  C7_16 
REMARK    2  A    between atoms: O1_1  and  C14_23 
REMARK    3  A    between atoms: O2_2  and  C11_20 
REMARK    4  A    between atoms: N2_8  and  C13_22 
REMARK    5  A    between atoms: N2_8  and  C17_26 
REMARK    6  A    between atoms: N3_9  and  C15_24 
REMARK    7  A    between atoms: C1_10  and  C4_13 
REMARK    8  A    between atoms: C2_11  and  C7_16 
REMARK    9  A    between atoms: C3_12  and  C11_20 
REMARK   10  A    between atoms: C13_22  and  C14_23 
REMARK   11  A    between atoms: C17_26  and  C19_28 
ROOT
ATOM      1  N1  UNK     1      -1.565  35.437 236.620  1.00  0.00    -0.362 N 
ATOM      2  C1  UNK     1       0.722  34.392 235.315  1.00  0.00     0.101 C 
ATOM      3  C2  UNK     1      -0.522  33.554 235.636  1.00  0.00     0.052 C 
ATOM      4  C3  UNK     1       0.535  35.881 235.624  1.00  0.00     0.052 C 
ATOM      5  C5  UNK     1      -1.584  34.095 236.273  1.00  0.00     0.018 C 
ATOM      6  C6  UNK     1      -0.563  36.328 236.275  1.00  0.00     0.018 C 
ATOM      7  C10 UNK     1      -2.834  33.354 236.667  1.00  0.00     0.069 C 
ATOM      8  C12 UNK     1      -0.820  37.756 236.672  1.00  0.00     0.069 C 
ATOM      9  H2  UNK     1      -2.372  35.805 237.111  1.00  0.00     0.165 HD
ENDROOT
BRANCH   3  10
ATOM     10  C7  UNK     1      -0.519  32.162 235.158  1.00  0.00     0.292 C 
ATOM     11  O3  UNK     1      -0.416  31.201 235.898  1.00  0.00    -0.259 OA
BRANCH  10  12
ATOM     12  O1  UNK     1      -0.649  32.172 233.809  1.00  0.00    -0.316 OA
BRANCH  12  13
ATOM     13  C14 UNK     1       0.331  31.409 233.099  1.00  0.00     0.209 C 
BRANCH  13  14
ATOM     14  C13 UNK     1       0.887  32.259 231.968  1.00  0.00     0.299 C 
BRANCH  14  15
ATOM     15  N2  UNK     1      -0.075  32.360 230.879  1.00  0.00     0.090 N 
ATOM     16  C20 UNK     1       0.341  31.535 229.743  1.00  0.00     0.310 C 
BRANCH  15  17
ATOM     17  C17 UNK     1      -0.239  33.754 230.460  1.00  0.00     0.310 C 
BRANCH  17  18
ATOM     18  C19 UNK     1      -1.126  34.522 231.403  1.00  0.00    -0.030 A 
ATOM     19  C21 UNK     1      -0.705  35.751 231.910  1.00  0.00     0.009 A 
ATOM     20  C24 UNK     1      -1.527  36.465 232.783  1.00  0.00     0.001 A 
ATOM     21  C26 UNK     1      -2.769  35.948 233.149  1.00  0.00     0.000 A 
ATOM     22  C25 UNK     1      -3.190  34.717 232.643  1.00  0.00     0.001 A 
ATOM     23  C22 UNK     1      -2.369  34.005 231.769  1.00  0.00     0.009 A 
ENDBRANCH  17  18
ENDBRANCH  15  17
ENDBRANCH  14  15
ENDBRANCH  13  14
ENDBRANCH  12  13
ENDBRANCH  10  12
ENDBRANCH   3  10
BRANCH   2  24
ATOM     24  C4  UNK     1       1.906  33.857 236.068  1.00  0.00    -0.042 A 
ATOM     25  C8  UNK     1       1.989  34.026 237.450  1.00  0.00     0.044 A 
ATOM     26  C15 UNK     1       3.091  33.530 238.149  1.00  0.00     0.103 A 
ATOM     27  C18 UNK     1       4.107  32.863 237.466  1.00  0.00     0.036 A 
ATOM     28  C16 UNK     1       4.024  32.694 236.084  1.00  0.00     0.003 A 
ATOM     29  C9  UNK     1       2.924  33.190 235.386  1.00  0.00     0.008 A 
BRANCH  26  30
ATOM     30  N3  UNK     1       3.175  33.702 239.556  1.00  0.00    -0.116 N 
ATOM     31  O5  UNK     1       3.633  34.778 240.011  1.00  0.00    -0.532 OA
ATOM     32  O6  UNK     1       2.789  32.773 240.306  1.00  0.00    -0.532 OA
ENDBRANCH  26  30
ENDBRANCH   2  24
BRANCH   4  33
ATOM     33  C11 UNK     1       1.583  36.792 235.135  1.00  0.00     0.291 C 
ATOM     34  O4  UNK     1       2.057  36.727 234.016  1.00  0.00    -0.260 OA
BRANCH  33  35
ATOM     35  O2  UNK     1       1.889  37.661 236.127  1.00  0.00    -0.323 OA
ATOM     36  C23 UNK     1       3.000  37.281 236.946  1.00  0.00     0.213 C 
ENDBRANCH  33  35
ENDBRANCH   4  33
TORSDOF 11
ENDMDL
