MODEL 1
REMARK VINA RESULT:      -6.4      0.000      0.000
REMARK  8 active torsions:
REMARK  status: ('A' for Active; 'I' for Inactive)
REMARK    1  A    between atoms: O1_1  and  C7_15 
REMARK    2  A    between atoms: O1_1  and  C14_22 
REMARK    3  A    between atoms: O2_2  and  C11_19 
REMARK    4  A    between atoms: N2_8  and  C8_16 
REMARK    5  A    between atoms: C1_9  and  C4_12 
REMARK    6  A    between atoms: C2_10  and  C7_15 
REMARK    7  A    between atoms: C3_11  and  C11_19 
REMARK    8  A    between atoms: C13_21  and  C14_22 
ROOT
ATOM      1  N1  UNK     1       1.106  37.829 237.070  1.00  0.00    -0.362 N 
ATOM      2  C1  UNK     1       0.774  35.137 236.250  1.00  0.00     0.103 C 
ATOM      3  C2  UNK     1       2.118  35.721 236.703  1.00  0.00     0.052 C 
ATOM      4  C3  UNK     1      -0.394  36.109 236.443  1.00  0.00     0.052 C 
ATOM      5  C5  UNK     1       2.229  37.017 237.072  1.00  0.00     0.018 C 
ATOM      6  C6  UNK     1      -0.183  37.394 236.809  1.00  0.00     0.018 C 
ATOM      7  C10 UNK     1       3.504  37.697 237.494  1.00  0.00     0.069 C 
ATOM      8  C12 UNK     1      -1.252  38.440 236.975  1.00  0.00     0.069 C 
ATOM      9  H2  UNK     1       1.227  38.797 237.343  1.00  0.00     0.165 HD
ENDROOT
BRANCH   2  10
ATOM     10  C4  UNK     1       0.857  34.716 234.812  1.00  0.00    -0.012 A 
ATOM     11  C8  UNK     1       0.643  33.393 234.437  1.00  0.00     0.110 A 
ATOM     12  C15 UNK     1       0.728  33.032 233.093  1.00  0.00     0.037 A 
ATOM     13  C17 UNK     1       1.028  33.995 232.129  1.00  0.00     0.002 A 
ATOM     14  C16 UNK     1       1.242  35.319 232.510  1.00  0.00     0.001 A 
ATOM     15  C9  UNK     1       1.157  35.681 233.855  1.00  0.00     0.011 A 
BRANCH  11  16
ATOM     16  N2  UNK     1       0.338  32.393 235.402  1.00  0.00    -0.115 N 
ATOM     17  O5  UNK     1       1.278  31.749 235.925  1.00  0.00    -0.532 OA
ATOM     18  O6  UNK     1      -0.862  32.187 235.702  1.00  0.00    -0.532 OA
ENDBRANCH  11  16
ENDBRANCH   2  10
BRANCH   3  19
ATOM     19  C7  UNK     1       3.251  34.785 236.775  1.00  0.00     0.292 C 
ATOM     20  O3  UNK     1       4.231  34.866 236.057  1.00  0.00    -0.259 OA
BRANCH  19  21
ATOM     21  O1  UNK     1       2.994  33.874 237.743  1.00  0.00    -0.317 OA
BRANCH  21  22
ATOM     22  C14 UNK     1       3.119  34.362 239.084  1.00  0.00     0.183 C 
BRANCH  22  23
ATOM     23  C13 UNK     1       4.599  34.473 239.463  1.00  0.00     0.002 C 
ATOM     24  C18 UNK     1       5.066  33.199 240.163  1.00  0.00     0.011 C 
ATOM     25  C19 UNK     1       4.856  35.693 240.349  1.00  0.00     0.011 C 
ENDBRANCH  22  23
ENDBRANCH  21  22
ENDBRANCH  19  21
ENDBRANCH   3  19
BRANCH   4  26
ATOM     26  C11 UNK     1      -1.747  35.559 236.259  1.00  0.00     0.291 C 
ATOM     27  O4  UNK     1      -2.319  34.894 237.103  1.00  0.00    -0.260 OA
BRANCH  26  28
ATOM     28  O2  UNK     1      -2.195  35.926 235.034  1.00  0.00    -0.323 OA
ATOM     29  C20 UNK     1      -2.811  34.880 234.275  1.00  0.00     0.213 C 
ENDBRANCH  26  28
ENDBRANCH   4  26
TORSDOF 8
ENDMDL
MODEL 2
REMARK VINA RESULT:      -6.1      1.640      2.230
REMARK  8 active torsions:
REMARK  status: ('A' for Active; 'I' for Inactive)
REMARK    1  A    between atoms: O1_1  and  C7_15 
REMARK    2  A    between atoms: O1_1  and  C14_22 
REMARK    3  A    between atoms: O2_2  and  C11_19 
REMARK    4  A    between atoms: N2_8  and  C8_16 
REMARK    5  A    between atoms: C1_9  and  C4_12 
REMARK    6  A    between atoms: C2_10  and  C7_15 
REMARK    7  A    between atoms: C3_11  and  C11_19 
REMARK    8  A    between atoms: C13_21  and  C14_22 
ROOT
ATOM      1  N1  UNK     1       1.028  37.581 237.055  1.00  0.00    -0.362 N 
ATOM      2  C1  UNK     1       0.326  34.838 236.934  1.00  0.00     0.103 C 
ATOM      3  C2  UNK     1       1.698  35.338 237.404  1.00  0.00     0.052 C 
ATOM      4  C3  UNK     1      -0.673  35.975 236.696  1.00  0.00     0.052 C 
ATOM      5  C5  UNK     1       1.991  36.657 237.431  1.00  0.00     0.018 C 
ATOM      6  C6  UNK     1      -0.284  37.270 236.737  1.00  0.00     0.018 C 
ATOM      7  C10 UNK     1       3.314  37.249 237.836  1.00  0.00     0.069 C 
ATOM      8  C12 UNK     1      -1.170  38.456 236.469  1.00  0.00     0.069 C 
ATOM      9  H2  UNK     1       1.285  38.561 237.079  1.00  0.00     0.165 HD
ENDROOT
BRANCH   2  10
ATOM     10  C4  UNK     1       0.478  34.021 235.684  1.00  0.00    -0.012 A 
ATOM     11  C8  UNK     1       0.050  32.698 235.634  1.00  0.00     0.110 A 
ATOM     12  C15 UNK     1       0.207  31.965 234.458  1.00  0.00     0.037 A 
ATOM     13  C17 UNK     1       0.791  32.557 233.338  1.00  0.00     0.002 A 
ATOM     14  C16 UNK     1       1.218  33.883 233.394  1.00  0.00     0.001 A 
ATOM     15  C9  UNK     1       1.062  34.617 234.570  1.00  0.00     0.011 A 
BRANCH  11  16
ATOM     16  N2  UNK     1      -0.546  32.073 236.764  1.00  0.00    -0.115 N 
ATOM     17  O5  UNK     1       0.197  31.588 237.650  1.00  0.00    -0.532 OA
ATOM     18  O6  UNK     1      -1.797  32.028 236.841  1.00  0.00    -0.532 OA
ENDBRANCH  11  16
ENDBRANCH   2  10
BRANCH   3  19
ATOM     19  C7  UNK     1       2.643  34.315 237.879  1.00  0.00     0.292 C 
ATOM     20  O3  UNK     1       2.628  33.865 239.010  1.00  0.00    -0.259 OA
BRANCH  19  21
ATOM     21  O1  UNK     1       3.479  33.999 236.862  1.00  0.00    -0.317 OA
BRANCH  21  22
ATOM     22  C14 UNK     1       4.187  32.764 237.019  1.00  0.00     0.183 C 
BRANCH  22  23
ATOM     23  C13 UNK     1       3.457  31.645 236.270  1.00  0.00     0.002 C 
ATOM     24  C18 UNK     1       3.425  30.373 237.114  1.00  0.00     0.011 C 
ATOM     25  C19 UNK     1       4.107  31.367 234.913  1.00  0.00     0.011 C 
ENDBRANCH  22  23
ENDBRANCH  21  22
ENDBRANCH  19  21
ENDBRANCH   3  19
BRANCH   4  26
ATOM     26  C11 UNK     1      -2.075  35.585 236.473  1.00  0.00     0.291 C 
ATOM     27  O4  UNK     1      -2.826  35.247 237.369  1.00  0.00    -0.260 OA
BRANCH  26  28
ATOM     28  O2  UNK     1      -2.339  35.678 235.147  1.00  0.00    -0.323 OA
ATOM     29  C20 UNK     1      -3.019  34.551 234.584  1.00  0.00     0.213 C 
ENDBRANCH  26  28
ENDBRANCH   4  26
TORSDOF 8
ENDMDL
MODEL 3
REMARK VINA RESULT:      -5.9      1.952      5.249
REMARK  8 active torsions:
REMARK  status: ('A' for Active; 'I' for Inactive)
REMARK    1  A    between atoms: O1_1  and  C7_15 
REMARK    2  A    between atoms: O1_1  and  C14_22 
REMARK    3  A    between atoms: O2_2  and  C11_19 
REMARK    4  A    between atoms: N2_8  and  C8_16 
REMARK    5  A    between atoms: C1_9  and  C4_12 
REMARK    6  A    between atoms: C2_10  and  C7_15 
REMARK    7  A    between atoms: C3_11  and  C11_19 
REMARK    8  A    between atoms: C13_21  and  C14_22 
ROOT
ATOM      1  N1  UNK     1       0.231  33.128 238.279  1.00  0.00    -0.362 N 
ATOM      2  C1  UNK     1       0.726  34.408 235.800  1.00  0.00     0.103 C 
ATOM      3  C2  UNK     1      -0.675  34.254 236.404  1.00  0.00     0.052 C 
ATOM      4  C3  UNK     1       1.839  33.947 236.748  1.00  0.00     0.052 C 
ATOM      5  C5  UNK     1      -0.863  33.622 237.584  1.00  0.00     0.018 C 
ATOM      6  C6  UNK     1       1.553  33.315 237.908  1.00  0.00     0.018 C 
ATOM      7  C10 UNK     1      -2.194  33.384 238.244  1.00  0.00     0.069 C 
ATOM      8  C12 UNK     1       2.566  32.778 238.882  1.00  0.00     0.069 C 
ATOM      9  H2  UNK     1       0.053  32.652 239.156  1.00  0.00     0.165 HD
ENDROOT
BRANCH   2  10
ATOM     10  C4  UNK     1       0.812  33.653 234.505  1.00  0.00    -0.012 A 
ATOM     11  C8  UNK     1       0.909  34.321 233.288  1.00  0.00     0.110 A 
ATOM     12  C15 UNK     1       0.986  33.592 232.103  1.00  0.00     0.037 A 
ATOM     13  C17 UNK     1       0.964  32.197 232.138  1.00  0.00     0.002 A 
ATOM     14  C16 UNK     1       0.867  31.532 233.360  1.00  0.00     0.001 A 
ATOM     15  C9  UNK     1       0.790  32.262 234.547  1.00  0.00     0.011 A 
BRANCH  11  16
ATOM     16  N2  UNK     1       0.931  35.742 233.228  1.00  0.00    -0.115 N 
ATOM     17  O5  UNK     1       1.971  36.347 233.582  1.00  0.00    -0.532 OA
ATOM     18  O6  UNK     1      -0.089  36.347 232.823  1.00  0.00    -0.532 OA
ENDBRANCH  11  16
ENDBRANCH   2  10
BRANCH   3  19
ATOM     19  C7  UNK     1      -1.782  34.883 235.666  1.00  0.00     0.292 C 
ATOM     20  O3  UNK     1      -2.365  34.341 234.746  1.00  0.00    -0.259 OA
BRANCH  19  21
ATOM     21  O1  UNK     1      -2.003  36.111 236.192  1.00  0.00    -0.317 OA
BRANCH  21  22
ATOM     22  C14 UNK     1      -1.378  37.193 235.492  1.00  0.00     0.183 C 
BRANCH  22  23
ATOM     23  C13 UNK     1      -0.893  38.249 236.490  1.00  0.00     0.002 C 
ATOM     24  C18 UNK     1       0.361  37.762 237.213  1.00  0.00     0.011 C 
ATOM     25  C19 UNK     1      -1.986  38.604 237.499  1.00  0.00     0.011 C 
ENDBRANCH  22  23
ENDBRANCH  21  22
ENDBRANCH  19  21
ENDBRANCH   3  19
BRANCH   4  26
ATOM     26  C11 UNK     1       3.219  34.273 236.352  1.00  0.00     0.291 C 
ATOM     27  O4  UNK     1       4.023  33.437 235.984  1.00  0.00    -0.260 OA
BRANCH  26  28
ATOM     28  O2  UNK     1       3.395  35.610 236.472  1.00  0.00    -0.323 OA
ATOM     29  C20 UNK     1       4.068  36.029 237.665  1.00  0.00     0.213 C 
ENDBRANCH  26  28
ENDBRANCH   4  26
TORSDOF 8
ENDMDL
MODEL 4
REMARK VINA RESULT:      -5.5      2.405      5.144
REMARK  8 active torsions:
REMARK  status: ('A' for Active; 'I' for Inactive)
REMARK    1  A    between atoms: O1_1  and  C7_15 
REMARK    2  A    between atoms: O1_1  and  C14_22 
REMARK    3  A    between atoms: O2_2  and  C11_19 
REMARK    4  A    between atoms: N2_8  and  C8_16 
REMARK    5  A    between atoms: C1_9  and  C4_12 
REMARK    6  A    between atoms: C2_10  and  C7_15 
REMARK    7  A    between atoms: C3_11  and  C11_19 
REMARK    8  A    between atoms: C13_21  and  C14_22 
ROOT
ATOM      1  N1  UNK     1       3.869  34.727 237.694  1.00  0.00    -0.362 N 
ATOM      2  C1  UNK     1       2.429  33.834 235.422  1.00  0.00     0.103 C 
ATOM      3  C2  UNK     1       2.516  35.306 235.840  1.00  0.00     0.052 C 
ATOM      4  C3  UNK     1       3.331  32.922 236.260  1.00  0.00     0.052 C 
ATOM      5  C5  UNK     1       3.204  35.683 236.941  1.00  0.00     0.018 C 
ATOM      6  C6  UNK     1       3.977  33.388 237.353  1.00  0.00     0.018 C 
ATOM      7  C10 UNK     1       3.319  37.091 237.459  1.00  0.00     0.069 C 
ATOM      8  C12 UNK     1       4.842  32.569 238.272  1.00  0.00     0.069 C 
ATOM      9  H2  UNK     1       4.366  35.043 238.518  1.00  0.00     0.165 HD
ENDROOT
BRANCH   2  10
ATOM     10  C4  UNK     1       1.007  33.361 235.503  1.00  0.00    -0.012 A 
ATOM     11  C8  UNK     1       0.327  32.928 234.368  1.00  0.00     0.110 A 
ATOM     12  C15 UNK     1      -0.994  32.496 234.475  1.00  0.00     0.037 A 
ATOM     13  C17 UNK     1      -1.631  32.498 235.717  1.00  0.00     0.002 A 
ATOM     14  C16 UNK     1      -0.946  32.932 236.851  1.00  0.00     0.001 A 
ATOM     15  C9  UNK     1       0.377  33.365 236.744  1.00  0.00     0.011 A 
BRANCH  11  16
ATOM     16  N2  UNK     1       0.956  32.920 233.092  1.00  0.00    -0.115 N 
ATOM     17  O5  UNK     1       0.905  33.955 232.385  1.00  0.00    -0.532 OA
ATOM     18  O6  UNK     1       1.542  31.879 232.712  1.00  0.00    -0.532 OA
ENDBRANCH  11  16
ENDBRANCH   2  10
BRANCH   3  19
ATOM     19  C7  UNK     1       1.869  36.283 234.948  1.00  0.00     0.292 C 
ATOM     20  O3  UNK     1       2.253  36.510 233.815  1.00  0.00    -0.259 OA
BRANCH  19  21
ATOM     21  O1  UNK     1       0.826  36.839 235.607  1.00  0.00    -0.317 OA
BRANCH  21  22
ATOM     22  C14 UNK     1      -0.467  36.517 235.081  1.00  0.00     0.183 C 
BRANCH  22  23
ATOM     23  C13 UNK     1      -1.557  37.140 235.958  1.00  0.00     0.002 C 
ATOM     24  C18 UNK     1      -0.954  38.184 236.896  1.00  0.00     0.011 C 
ATOM     25  C19 UNK     1      -2.304  36.073 236.760  1.00  0.00     0.011 C 
ENDBRANCH  22  23
ENDBRANCH  21  22
ENDBRANCH  19  21
ENDBRANCH   3  19
BRANCH   4  26
ATOM     26  C11 UNK     1       3.494  31.538 235.785  1.00  0.00     0.291 C 
ATOM     27  O4  UNK     1       4.238  31.228 234.874  1.00  0.00    -0.260 OA
BRANCH  26  28
ATOM     28  O2  UNK     1       2.696  30.734 236.529  1.00  0.00    -0.323 OA
ATOM     29  C20 UNK     1       1.814  29.892 235.778  1.00  0.00     0.213 C 
ENDBRANCH  26  28
ENDBRANCH   4  26
TORSDOF 8
ENDMDL
MODEL 5
REMARK VINA RESULT:      -5.5      2.185      4.641
REMARK  8 active torsions:
REMARK  status: ('A' for Active; 'I' for Inactive)
REMARK    1  A    between atoms: O1_1  and  C7_15 
REMARK    2  A    between atoms: O1_1  and  C14_22 
REMARK    3  A    between atoms: O2_2  and  C11_19 
REMARK    4  A    between atoms: N2_8  and  C8_16 
REMARK    5  A    between atoms: C1_9  and  C4_12 
REMARK    6  A    between atoms: C2_10  and  C7_15 
REMARK    7  A    between atoms: C3_11  and  C11_19 
REMARK    8  A    between atoms: C13_21  and  C14_22 
ROOT
ATOM      1  N1  UNK     1       2.350  31.286 234.277  1.00  0.00    -0.362 N 
ATOM      2  C1  UNK     1       1.722  34.043 234.464  1.00  0.00     0.103 C 
ATOM      3  C2  UNK     1       2.778  33.357 235.340  1.00  0.00     0.052 C 
ATOM      4  C3  UNK     1       1.164  33.123 233.373  1.00  0.00     0.052 C 
ATOM      5  C5  UNK     1       3.033  32.034 235.223  1.00  0.00     0.018 C 
ATOM      6  C6  UNK     1       1.471  31.807 233.341  1.00  0.00     0.018 C 
ATOM      7  C10 UNK     1       4.017  31.259 236.056  1.00  0.00     0.069 C 
ATOM      8  C12 UNK     1       0.939  30.810 232.347  1.00  0.00     0.069 C 
ATOM      9  H2  UNK     1       2.560  30.296 234.223  1.00  0.00     0.165 HD
ENDROOT
BRANCH   2  10
ATOM     10  C4  UNK     1       0.602  34.558 235.321  1.00  0.00    -0.012 A 
ATOM     11  C8  UNK     1       0.456  35.920 235.570  1.00  0.00     0.110 A 
ATOM     12  C15 UNK     1      -0.594  36.368 236.371  1.00  0.00     0.037 A 
ATOM     13  C17 UNK     1      -1.493  35.453 236.920  1.00  0.00     0.002 A 
ATOM     14  C16 UNK     1      -1.342  34.090 236.667  1.00  0.00     0.001 A 
ATOM     15  C9  UNK     1      -0.292  33.641 235.866  1.00  0.00     0.011 A 
BRANCH  11  16
ATOM     16  N2  UNK     1       1.362  36.870 235.023  1.00  0.00    -0.115 N 
ATOM     17  O5  UNK     1       1.663  36.789 233.808  1.00  0.00    -0.532 OA
ATOM     18  O6  UNK     1       1.831  37.760 235.770  1.00  0.00    -0.532 OA
ENDBRANCH  11  16
ENDBRANCH   2  10
BRANCH   3  19
ATOM     19  C7  UNK     1       3.535  34.223 236.258  1.00  0.00     0.292 C 
ATOM     20  O3  UNK     1       4.313  35.079 235.880  1.00  0.00    -0.259 OA
BRANCH  19  21
ATOM     21  O1  UNK     1       3.205  33.891 237.529  1.00  0.00    -0.317 OA
BRANCH  21  22
ATOM     22  C14 UNK     1       2.827  34.990 238.365  1.00  0.00     0.183 C 
BRANCH  22  23
ATOM     23  C13 UNK     1       3.869  35.188 239.470  1.00  0.00     0.002 C 
ATOM     24  C18 UNK     1       4.789  36.358 239.131  1.00  0.00     0.011 C 
ATOM     25  C19 UNK     1       4.688  33.916 239.697  1.00  0.00     0.011 C 
ENDBRANCH  22  23
ENDBRANCH  21  22
ENDBRANCH  19  21
ENDBRANCH   3  19
BRANCH   4  26
ATOM     26  C11 UNK     1       0.324  33.757 232.343  1.00  0.00     0.291 C 
ATOM     27  O4  UNK     1      -0.889  33.666 232.321  1.00  0.00    -0.260 OA
BRANCH  26  28
ATOM     28  O2  UNK     1       1.131  34.422 231.482  1.00  0.00    -0.323 OA
ATOM     29  C20 UNK     1       1.002  34.036 230.109  1.00  0.00     0.213 C 
ENDBRANCH  26  28
ENDBRANCH   4  26
TORSDOF 8
ENDMDL
MODEL 6
REMARK VINA RESULT:      -5.5      2.640      5.222
REMARK  8 active torsions:
REMARK  status: ('A' for Active; 'I' for Inactive)
REMARK    1  A    between atoms: O1_1  and  C7_15 
REMARK    2  A    between atoms: O1_1  and  C14_22 
REMARK    3  A    between atoms: O2_2  and  C11_19 
REMARK    4  A    between atoms: N2_8  and  C8_16 
REMARK    5  A    between atoms: C1_9  and  C4_12 
REMARK    6  A    between atoms: C2_10  and  C7_15 
REMARK    7  A    between atoms: C3_11  and  C11_19 
REMARK    8  A    between atoms: C13_21  and  C14_22 
ROOT
ATOM      1  N1  UNK     1       2.303  32.710 235.409  1.00  0.00    -0.362 N 
ATOM      2  C1  UNK     1       0.194  34.272 234.339  1.00  0.00     0.103 C 
ATOM      3  C2  UNK     1       0.130  32.746 234.472  1.00  0.00     0.052 C 
ATOM      4  C3  UNK     1       1.443  34.875 234.992  1.00  0.00     0.052 C 
ATOM      5  C5  UNK     1       1.168  32.042 234.977  1.00  0.00     0.018 C 
ATOM      6  C6  UNK     1       2.436  34.088 235.464  1.00  0.00     0.018 C 
ATOM      7  C10 UNK     1       1.222  30.544 235.114  1.00  0.00     0.069 C 
ATOM      8  C12 UNK     1       3.722  34.577 236.074  1.00  0.00     0.069 C 
ATOM      9  H2  UNK     1       3.065  32.151 235.773  1.00  0.00     0.165 HD
ENDROOT
BRANCH   2  10
ATOM     10  C4  UNK     1       0.135  34.664 232.892  1.00  0.00    -0.012 A 
ATOM     11  C8  UNK     1      -0.897  35.460 232.404  1.00  0.00     0.110 A 
ATOM     12  C15 UNK     1      -0.925  35.806 231.053  1.00  0.00     0.037 A 
ATOM     13  C17 UNK     1       0.078  35.353 230.195  1.00  0.00     0.002 A 
ATOM     14  C16 UNK     1       1.109  34.555 230.689  1.00  0.00     0.001 A 
ATOM     15  C9  UNK     1       1.138  34.209 232.040  1.00  0.00     0.011 A 
BRANCH  11  16
ATOM     16  N2  UNK     1      -1.931  35.932 233.260  1.00  0.00    -0.115 N 
ATOM     17  O5  UNK     1      -1.723  36.957 233.952  1.00  0.00    -0.532 OA
ATOM     18  O6  UNK     1      -3.018  35.309 233.296  1.00  0.00    -0.532 OA
ENDBRANCH  11  16
ENDBRANCH   2  10
BRANCH   3  19
ATOM     19  C7  UNK     1      -1.137  32.105 234.085  1.00  0.00     0.292 C 
ATOM     20  O3  UNK     1      -1.228  31.291 233.186  1.00  0.00    -0.259 OA
BRANCH  19  21
ATOM     21  O1  UNK     1      -2.120  32.580 234.887  1.00  0.00    -0.317 OA
BRANCH  21  22
ATOM     22  C14 UNK     1      -2.308  31.858 236.109  1.00  0.00     0.183 C 
BRANCH  22  23
ATOM     23  C13 UNK     1      -2.212  32.816 237.301  1.00  0.00     0.002 C 
ATOM     24  C18 UNK     1      -2.401  34.259 236.841  1.00  0.00     0.011 C 
ATOM     25  C19 UNK     1      -0.877  32.661 238.032  1.00  0.00     0.011 C 
ENDBRANCH  22  23
ENDBRANCH  21  22
ENDBRANCH  19  21
ENDBRANCH   3  19
BRANCH   4  26
ATOM     26  C11 UNK     1       1.476  36.341 235.121  1.00  0.00     0.291 C 
ATOM     27  O4  UNK     1       2.022  37.071 234.314  1.00  0.00    -0.260 OA
BRANCH  26  28
ATOM     28  O2  UNK     1       0.814  36.687 236.251  1.00  0.00    -0.323 OA
ATOM     29  C20 UNK     1       1.562  37.489 237.172  1.00  0.00     0.213 C 
ENDBRANCH  26  28
ENDBRANCH   4  26
TORSDOF 8
ENDMDL
MODEL 7
REMARK VINA RESULT:      -5.5      1.861      5.401
REMARK  8 active torsions:
REMARK  status: ('A' for Active; 'I' for Inactive)
REMARK    1  A    between atoms: O1_1  and  C7_15 
REMARK    2  A    between atoms: O1_1  and  C14_22 
REMARK    3  A    between atoms: O2_2  and  C11_19 
REMARK    4  A    between atoms: N2_8  and  C8_16 
REMARK    5  A    between atoms: C1_9  and  C4_12 
REMARK    6  A    between atoms: C2_10  and  C7_15 
REMARK    7  A    between atoms: C3_11  and  C11_19 
REMARK    8  A    between atoms: C13_21  and  C14_22 
ROOT
ATOM      1  N1  UNK     1       1.008  37.558 237.550  1.00  0.00    -0.362 N 
ATOM      2  C1  UNK     1       1.067  35.264 235.887  1.00  0.00     0.103 C 
ATOM      3  C2  UNK     1      -0.080  36.283 235.879  1.00  0.00     0.052 C 
ATOM      4  C3  UNK     1       2.246  35.701 236.763  1.00  0.00     0.052 C 
ATOM      5  C5  UNK     1      -0.070  37.355 236.702  1.00  0.00     0.018 C 
ATOM      6  C6  UNK     1       2.160  36.789 237.562  1.00  0.00     0.018 C 
ATOM      7  C10 UNK     1      -1.159  38.390 236.801  1.00  0.00     0.069 C 
ATOM      8  C12 UNK     1       3.236  37.272 238.496  1.00  0.00     0.069 C 
ATOM      9  H2  UNK     1       0.978  38.367 238.160  1.00  0.00     0.165 HD
ENDROOT
BRANCH   2  10
ATOM     10  C4  UNK     1       0.561  33.926 236.340  1.00  0.00    -0.012 A 
ATOM     11  C8  UNK     1       0.801  32.776 235.594  1.00  0.00     0.110 A 
ATOM     12  C15 UNK     1       0.317  31.547 236.041  1.00  0.00     0.037 A 
ATOM     13  C17 UNK     1      -0.407  31.473 237.232  1.00  0.00     0.002 A 
ATOM     14  C16 UNK     1      -0.645  32.628 237.975  1.00  0.00     0.001 A 
ATOM     15  C9  UNK     1      -0.161  33.858 237.529  1.00  0.00     0.011 A 
BRANCH  11  16
ATOM     16  N2  UNK     1       1.535  32.828 234.376  1.00  0.00    -0.115 N 
ATOM     17  O5  UNK     1       2.629  32.220 234.302  1.00  0.00    -0.532 OA
ATOM     18  O6  UNK     1       1.066  33.480 233.414  1.00  0.00    -0.532 OA
ENDBRANCH  11  16
ENDBRANCH   2  10
BRANCH   3  19
ATOM     19  C7  UNK     1      -1.147  36.064 234.890  1.00  0.00     0.292 C 
ATOM     20  O3  UNK     1      -1.017  36.296 233.702  1.00  0.00    -0.259 OA
BRANCH  19  21
ATOM     21  O1  UNK     1      -2.236  35.580 235.535  1.00  0.00    -0.317 OA
BRANCH  21  22
ATOM     22  C14 UNK     1      -3.112  34.781 234.733  1.00  0.00     0.183 C 
BRANCH  22  23
ATOM     23  C13 UNK     1      -2.642  33.323 234.741  1.00  0.00     0.002 C 
ATOM     24  C18 UNK     1      -2.417  32.829 233.313  1.00  0.00     0.011 C 
ATOM     25  C19 UNK     1      -3.641  32.420 235.465  1.00  0.00     0.011 C 
ENDBRANCH  22  23
ENDBRANCH  21  22
ENDBRANCH  19  21
ENDBRANCH   3  19
BRANCH   4  26
ATOM     26  C11 UNK     1       3.481  34.908 236.649  1.00  0.00     0.291 C 
ATOM     27  O4  UNK     1       4.270  35.029 235.730  1.00  0.00    -0.260 OA
BRANCH  26  28
ATOM     28  O2  UNK     1       3.552  34.072 237.713  1.00  0.00    -0.323 OA
ATOM     29  C20 UNK     1       4.063  32.766 237.424  1.00  0.00     0.213 C 
ENDBRANCH  26  28
ENDBRANCH   4  26
TORSDOF 8
ENDMDL
MODEL 8
REMARK VINA RESULT:      -5.5      2.826      5.064
REMARK  8 active torsions:
REMARK  status: ('A' for Active; 'I' for Inactive)
REMARK    1  A    between atoms: O1_1  and  C7_15 
REMARK    2  A    between atoms: O1_1  and  C14_22 
REMARK    3  A    between atoms: O2_2  and  C11_19 
REMARK    4  A    between atoms: N2_8  and  C8_16 
REMARK    5  A    between atoms: C1_9  and  C4_12 
REMARK    6  A    between atoms: C2_10  and  C7_15 
REMARK    7  A    between atoms: C3_11  and  C11_19 
REMARK    8  A    between atoms: C13_21  and  C14_22 
ROOT
ATOM      1  N1  UNK     1      -3.474  33.703 234.712  1.00  0.00    -0.362 N 
ATOM      2  C1  UNK     1      -0.810  34.666 234.627  1.00  0.00     0.103 C 
ATOM      3  C2  UNK     1      -1.277  33.561 235.581  1.00  0.00     0.052 C 
ATOM      4  C3  UNK     1      -1.888  35.077 233.618  1.00  0.00     0.052 C 
ATOM      5  C5  UNK     1      -2.563  33.144 235.595  1.00  0.00     0.018 C 
ATOM      6  C6  UNK     1      -3.154  34.612 233.717  1.00  0.00     0.018 C 
ATOM      7  C10 UNK     1      -3.131  32.096 236.515  1.00  0.00     0.069 C 
ATOM      8  C12 UNK     1      -4.296  34.991 232.813  1.00  0.00     0.069 C 
ATOM      9  H2  UNK     1      -4.431  33.373 234.756  1.00  0.00     0.165 HD
ENDROOT
BRANCH   2  10
ATOM     10  C4  UNK     1      -0.361  35.864 235.412  1.00  0.00    -0.012 A 
ATOM     11  C8  UNK     1       0.963  36.293 235.375  1.00  0.00     0.110 A 
ATOM     12  C15 UNK     1       1.350  37.408 236.116  1.00  0.00     0.037 A 
ATOM     13  C17 UNK     1       0.413  38.091 236.892  1.00  0.00     0.002 A 
ATOM     14  C16 UNK     1      -0.912  37.658 236.926  1.00  0.00     0.001 A 
ATOM     15  C9  UNK     1      -1.300  36.542 236.184  1.00  0.00     0.011 A 
BRANCH  11  16
ATOM     16  N2  UNK     1       1.936  35.611 234.593  1.00  0.00    -0.115 N 
ATOM     17  O5  UNK     1       2.599  34.687 235.122  1.00  0.00    -0.532 OA
ATOM     18  O6  UNK     1       2.101  35.953 233.398  1.00  0.00    -0.532 OA
ENDBRANCH  11  16
ENDBRANCH   2  10
BRANCH   3  19
ATOM     19  C7  UNK     1      -0.243  32.941 236.426  1.00  0.00     0.292 C 
ATOM     20  O3  UNK     1      -0.003  33.303 237.563  1.00  0.00    -0.259 OA
BRANCH  19  21
ATOM     21  O1  UNK     1       0.347  31.947 235.720  1.00  0.00    -0.317 OA
BRANCH  21  22
ATOM     22  C14 UNK     1       1.641  31.554 236.191  1.00  0.00     0.183 C 
BRANCH  22  23
ATOM     23  C13 UNK     1       2.440  30.918 235.050  1.00  0.00     0.002 C 
ATOM     24  C18 UNK     1       3.904  31.346 235.123  1.00  0.00     0.011 C 
ATOM     25  C19 UNK     1       1.847  31.278 233.687  1.00  0.00     0.011 C 
ENDBRANCH  22  23
ENDBRANCH  21  22
ENDBRANCH  19  21
ENDBRANCH   3  19
BRANCH   4  26
ATOM     26  C11 UNK     1      -1.460  35.958 232.519  1.00  0.00     0.291 C 
ATOM     27  O4  UNK     1      -1.771  37.132 232.444  1.00  0.00    -0.260 OA
BRANCH  26  28
ATOM     28  O2  UNK     1      -0.695  35.236 231.665  1.00  0.00    -0.323 OA
ATOM     29  C20 UNK     1      -1.353  34.824 230.462  1.00  0.00     0.213 C 
ENDBRANCH  26  28
ENDBRANCH   4  26
TORSDOF 8
ENDMDL
MODEL 9
REMARK VINA RESULT:      -5.5      2.057      6.010
REMARK  8 active torsions:
REMARK  status: ('A' for Active; 'I' for Inactive)
REMARK    1  A    between atoms: O1_1  and  C7_15 
REMARK    2  A    between atoms: O1_1  and  C14_22 
REMARK    3  A    between atoms: O2_2  and  C11_19 
REMARK    4  A    between atoms: N2_8  and  C8_16 
REMARK    5  A    between atoms: C1_9  and  C4_12 
REMARK    6  A    between atoms: C2_10  and  C7_15 
REMARK    7  A    between atoms: C3_11  and  C11_19 
REMARK    8  A    between atoms: C13_21  and  C14_22 
ROOT
ATOM      1  N1  UNK     1       0.166  32.912 238.417  1.00  0.00    -0.362 N 
ATOM      2  C1  UNK     1       0.533  34.460 236.071  1.00  0.00     0.103 C 
ATOM      3  C2  UNK     1      -0.844  34.148 236.670  1.00  0.00     0.052 C 
ATOM      4  C3  UNK     1       1.689  33.989 236.960  1.00  0.00     0.052 C 
ATOM      5  C5  UNK     1      -0.969  33.393 237.784  1.00  0.00     0.018 C 
ATOM      6  C6  UNK     1       1.466  33.228 238.055  1.00  0.00     0.018 C 
ATOM      7  C10 UNK     1      -2.271  32.998 238.429  1.00  0.00     0.069 C 
ATOM      8  C12 UNK     1       2.530  32.672 238.963  1.00  0.00     0.069 C 
ATOM      9  H2  UNK     1       0.035  32.342 239.244  1.00  0.00     0.165 HD
ENDROOT
BRANCH   2  10
ATOM     10  C4  UNK     1       0.651  33.842 234.708  1.00  0.00    -0.012 A 
ATOM     11  C8  UNK     1       0.804  34.631 233.572  1.00  0.00     0.110 A 
ATOM     12  C15 UNK     1       0.910  34.028 232.320  1.00  0.00     0.037 A 
ATOM     13  C17 UNK     1       0.861  32.638 232.207  1.00  0.00     0.002 A 
ATOM     14  C16 UNK     1       0.707  31.852 233.349  1.00  0.00     0.001 A 
ATOM     15  C9  UNK     1       0.602  32.455 234.603  1.00  0.00     0.011 A 
BRANCH  11  16
ATOM     16  N2  UNK     1       0.854  36.050 233.662  1.00  0.00    -0.115 N 
ATOM     17  O5  UNK     1       1.961  36.605 233.862  1.00  0.00    -0.532 OA
ATOM     18  O6  UNK     1      -0.209  36.702 233.538  1.00  0.00    -0.532 OA
ENDBRANCH  11  16
ENDBRANCH   2  10
BRANCH   3  19
ATOM     19  C7  UNK     1      -2.004  34.765 236.007  1.00  0.00     0.292 C 
ATOM     20  O3  UNK     1      -2.289  35.943 236.117  1.00  0.00    -0.259 OA
BRANCH  19  21
ATOM     21  O1  UNK     1      -2.648  33.811 235.294  1.00  0.00    -0.317 OA
BRANCH  21  22
ATOM     22  C14 UNK     1      -3.536  34.302 234.284  1.00  0.00     0.183 C 
BRANCH  22  23
ATOM     23  C13 UNK     1      -2.801  34.397 232.943  1.00  0.00     0.002 C 
ATOM     24  C18 UNK     1      -3.398  35.510 232.086  1.00  0.00     0.011 C 
ATOM     25  C19 UNK     1      -2.842  33.066 232.191  1.00  0.00     0.011 C 
ENDBRANCH  22  23
ENDBRANCH  21  22
ENDBRANCH  19  21
ENDBRANCH   3  19
BRANCH   4  26
ATOM     26  C11 UNK     1       3.037  34.448 236.586  1.00  0.00     0.291 C 
ATOM     27  O4  UNK     1       3.863  33.731 236.052  1.00  0.00    -0.260 OA
BRANCH  26  28
ATOM     28  O2  UNK     1       3.157  35.752 236.934  1.00  0.00    -0.323 OA
ATOM     29  C20 UNK     1       4.043  36.008 238.029  1.00  0.00     0.213 C 
ENDBRANCH  26  28
ENDBRANCH   4  26
TORSDOF 8
ENDMDL
