MODEL 1
REMARK VINA RESULT:      -6.9      0.000      0.000
REMARK  2 active torsions:
REMARK  status: ('A' for Active; 'I' for Inactive)
REMARK    1  A    between atoms: N2_3  and  C7_12 
REMARK    2  A    between atoms: C1_6  and  C7_12 
ROOT
ATOM      1  O1  UNK     1       1.606  36.903 234.240  1.00  0.00    -0.292 OA
ATOM      2  N1  UNK     1      -1.168  33.392 233.284  1.00  0.00    -0.353 N 
ATOM      3  C1  UNK     1       0.203  36.229 236.083  1.00  0.00     0.079 C 
ATOM      4  C2  UNK     1      -1.253  35.727 236.206  1.00  0.00     0.020 C 
ATOM      5  C3  UNK     1      -1.472  34.328 235.610  1.00  0.00     0.059 C 
ATOM      6  C4  UNK     1      -0.839  34.279 234.267  1.00  0.00     0.026 A 
ATOM      7  C5  UNK     1       0.164  35.100 233.800  1.00  0.00     0.045 A 
ATOM      8  C6  UNK     1       0.723  36.148 234.640  1.00  0.00     0.168 C 
ATOM      9  C8  UNK     1       0.456  34.700 232.464  1.00  0.00     0.007 A 
ATOM     10  C9  UNK     1      -0.393  33.626 232.167  1.00  0.00     0.045 A 
ATOM     11  C10 UNK     1      -2.179  32.360 233.387  1.00  0.00     0.156 C 
ATOM     12  C11 UNK     1       1.358  35.137 231.471  1.00  0.00     0.015 A 
ATOM     13  C12 UNK     1      -0.382  32.974 230.929  1.00  0.00     0.030 A 
ATOM     14  C15 UNK     1       1.378  34.492 230.229  1.00  0.00     0.001 A 
ATOM     15  C16 UNK     1       0.521  33.428 229.965  1.00  0.00     0.002 A 
ENDROOT
BRANCH   3  16
ATOM     16  C7  UNK     1       1.156  35.472 237.005  1.00  0.00     0.142 C 
BRANCH  16  17
ATOM     17  N2  UNK     1       2.437  36.150 237.139  1.00  0.00    -0.345 N 
ATOM     18  C13 UNK     1       3.649  35.674 236.747  1.00  0.00     0.079 A 
ATOM     19  N3  UNK     1       4.610  36.531 237.011  1.00  0.00    -0.355 N 
ATOM     20  C18 UNK     1       3.817  34.352 236.109  1.00  0.00     0.089 C 
ATOM     21  C17 UNK     1       3.976  37.598 237.597  1.00  0.00     0.106 A 
ATOM     22  H3  UNK     1       5.607  36.427 236.822  1.00  0.00     0.166 HD
ATOM     23  C14 UNK     1       2.620  37.382 237.686  1.00  0.00     0.109 A 
ENDBRANCH  16  17
ENDBRANCH   3  16
TORSDOF 2
ENDMDL
MODEL 2
REMARK VINA RESULT:      -6.6      2.418      6.694
REMARK  2 active torsions:
REMARK  status: ('A' for Active; 'I' for Inactive)
REMARK    1  A    between atoms: N2_3  and  C7_12 
REMARK    2  A    between atoms: C1_6  and  C7_12 
ROOT
ATOM      1  O1  UNK     1      -0.078  34.292 236.798  1.00  0.00    -0.292 OA
ATOM      2  N1  UNK     1       3.837  35.985 238.453  1.00  0.00    -0.353 N 
ATOM      3  C1  UNK     1       0.433  36.519 236.025  1.00  0.00     0.079 C 
ATOM      4  C2  UNK     1       1.071  37.769 236.673  1.00  0.00     0.020 C 
ATOM      5  C3  UNK     1       2.566  37.602 236.987  1.00  0.00     0.059 C 
ATOM      6  C4  UNK     1       2.766  36.297 237.667  1.00  0.00     0.026 A 
ATOM      7  C5  UNK     1       1.926  35.206 237.618  1.00  0.00     0.045 A 
ATOM      8  C6  UNK     1       0.695  35.246 236.843  1.00  0.00     0.168 C 
ATOM      9  C8  UNK     1       2.508  34.182 238.419  1.00  0.00     0.007 A 
ATOM     10  C9  UNK     1       3.706  34.698 238.930  1.00  0.00     0.045 A 
ATOM     11  C10 UNK     1       4.946  36.868 238.752  1.00  0.00     0.156 C 
ATOM     12  C11 UNK     1       2.143  32.864 238.765  1.00  0.00     0.015 A 
ATOM     13  C12 UNK     1       4.550  33.960 239.767  1.00  0.00     0.030 A 
ATOM     14  C15 UNK     1       2.980  32.117 239.602  1.00  0.00     0.001 A 
ATOM     15  C16 UNK     1       4.164  32.658 240.093  1.00  0.00     0.002 A 
ENDROOT
BRANCH   3  16
ATOM     16  C7  UNK     1       0.912  36.303 234.591  1.00  0.00     0.142 C 
BRANCH  16  17
ATOM     17  N2  UNK     1      -0.198  36.107 233.670  1.00  0.00    -0.345 N 
ATOM     18  C13 UNK     1      -0.139  35.519 232.445  1.00  0.00     0.079 A 
ATOM     19  N3  UNK     1      -1.318  35.498 231.865  1.00  0.00    -0.355 N 
ATOM     20  C18 UNK     1       1.117  34.985 231.879  1.00  0.00     0.089 C 
ATOM     21  C17 UNK     1      -2.161  36.102 232.764  1.00  0.00     0.106 A 
ATOM     22  H3  UNK     1      -1.555  35.118 230.948  1.00  0.00     0.166 HD
ATOM     23  C14 UNK     1      -1.484  36.488 233.897  1.00  0.00     0.109 A 
ENDBRANCH  16  17
ENDBRANCH   3  16
TORSDOF 2
ENDMDL
MODEL 3
REMARK VINA RESULT:      -6.5      2.322      6.469
REMARK  2 active torsions:
REMARK  status: ('A' for Active; 'I' for Inactive)
REMARK    1  A    between atoms: N2_3  and  C7_12 
REMARK    2  A    between atoms: C1_6  and  C7_12 
ROOT
ATOM      1  O1  UNK     1       1.747  37.738 235.051  1.00  0.00    -0.292 OA
ATOM      2  N1  UNK     1       2.389  33.923 237.493  1.00  0.00    -0.353 N 
ATOM      3  C1  UNK     1       0.544  35.823 234.214  1.00  0.00     0.079 C 
ATOM      4  C2  UNK     1       0.857  34.313 234.102  1.00  0.00     0.020 C 
ATOM      5  C3  UNK     1       0.927  33.599 235.460  1.00  0.00     0.059 C 
ATOM      6  C4  UNK     1       1.764  34.409 236.382  1.00  0.00     0.026 A 
ATOM      7  C5  UNK     1       2.042  35.754 236.273  1.00  0.00     0.045 A 
ATOM      8  C6  UNK     1       1.500  36.542 235.178  1.00  0.00     0.168 C 
ATOM      9  C8  UNK     1       2.884  36.105 237.368  1.00  0.00     0.007 A 
ATOM     10  C9  UNK     1       3.085  34.939 238.116  1.00  0.00     0.045 A 
ATOM     11  C10 UNK     1       2.340  32.551 237.955  1.00  0.00     0.156 C 
ATOM     12  C11 UNK     1       3.499  37.297 237.804  1.00  0.00     0.015 A 
ATOM     13  C12 UNK     1       3.869  34.910 239.275  1.00  0.00     0.030 A 
ATOM     14  C15 UNK     1       4.286  37.280 238.962  1.00  0.00     0.001 A 
ATOM     15  C16 UNK     1       4.466  36.105 239.684  1.00  0.00     0.002 A 
ENDROOT
BRANCH   3  16
ATOM     16  C7  UNK     1      -0.897  36.084 234.646  1.00  0.00     0.142 C 
BRANCH  16  17
ATOM     17  N2  UNK     1      -1.818  36.045 233.520  1.00  0.00    -0.345 N 
ATOM     18  C13 UNK     1      -2.984  35.347 233.453  1.00  0.00     0.079 A 
ATOM     19  N3  UNK     1      -3.583  35.524 232.296  1.00  0.00    -0.355 N 
ATOM     20  C18 UNK     1      -3.475  34.508 234.565  1.00  0.00     0.089 C 
ATOM     21  C17 UNK     1      -2.758  36.372 231.601  1.00  0.00     0.106 A 
ATOM     22  H3  UNK     1      -4.466  35.120 231.984  1.00  0.00     0.166 HD
ATOM     23  C14 UNK     1      -1.652  36.710 232.346  1.00  0.00     0.109 A 
ENDBRANCH  16  17
ENDBRANCH   3  16
TORSDOF 2
ENDMDL
MODEL 4
REMARK VINA RESULT:      -6.4      2.570      6.744
REMARK  2 active torsions:
REMARK  status: ('A' for Active; 'I' for Inactive)
REMARK    1  A    between atoms: N2_3  and  C7_12 
REMARK    2  A    between atoms: C1_6  and  C7_12 
ROOT
ATOM      1  O1  UNK     1      -0.774  34.021 237.020  1.00  0.00    -0.292 OA
ATOM      2  N1  UNK     1       2.982  36.539 237.711  1.00  0.00    -0.353 N 
ATOM      3  C1  UNK     1      -0.908  36.252 236.113  1.00  0.00     0.079 C 
ATOM      4  C2  UNK     1      -0.410  37.640 236.578  1.00  0.00     0.020 C 
ATOM      5  C3  UNK     1       1.119  37.785 236.546  1.00  0.00     0.059 C 
ATOM      6  C4  UNK     1       1.724  36.588 237.184  1.00  0.00     0.026 A 
ATOM      7  C5  UNK     1       1.132  35.354 237.346  1.00  0.00     0.045 A 
ATOM      8  C6  UNK     1      -0.220  35.107 236.872  1.00  0.00     0.168 C 
ATOM      9  C8  UNK     1       2.072  34.514 238.011  1.00  0.00     0.007 A 
ATOM     10  C9  UNK     1       3.223  35.283 238.227  1.00  0.00     0.045 A 
ATOM     11  C10 UNK     1       3.927  37.637 237.734  1.00  0.00     0.156 C 
ATOM     12  C11 UNK     1       2.067  33.175 238.454  1.00  0.00     0.015 A 
ATOM     13  C12 UNK     1       4.362  34.776 238.862  1.00  0.00     0.030 A 
ATOM     14  C15 UNK     1       3.201  32.657 239.090  1.00  0.00     0.001 A 
ATOM     15  C16 UNK     1       4.329  33.446 239.290  1.00  0.00     0.002 A 
ENDROOT
BRANCH   3  16
ATOM     16  C7  UNK     1      -0.722  36.044 234.612  1.00  0.00     0.142 C 
BRANCH  16  17
ATOM     17  N2  UNK     1      -1.972  35.698 233.952  1.00  0.00    -0.345 N 
ATOM     18  C13 UNK     1      -2.350  36.057 232.696  1.00  0.00     0.079 A 
ATOM     19  N3  UNK     1      -3.540  35.583 232.399  1.00  0.00    -0.355 N 
ATOM     20  C18 UNK     1      -1.498  36.879 231.812  1.00  0.00     0.089 C 
ATOM     21  C17 UNK     1      -3.932  34.893 233.518  1.00  0.00     0.106 A 
ATOM     22  H3  UNK     1      -4.058  35.702 231.527  1.00  0.00     0.166 HD
ATOM     23  C14 UNK     1      -2.969  34.951 234.499  1.00  0.00     0.109 A 
ENDBRANCH  16  17
ENDBRANCH   3  16
TORSDOF 2
ENDMDL
MODEL 5
REMARK VINA RESULT:      -6.2      2.065      6.269
REMARK  2 active torsions:
REMARK  status: ('A' for Active; 'I' for Inactive)
REMARK    1  A    between atoms: N2_3  and  C7_12 
REMARK    2  A    between atoms: C1_6  and  C7_12 
ROOT
ATOM      1  O1  UNK     1       2.150  36.215 234.179  1.00  0.00    -0.292 OA
ATOM      2  N1  UNK     1       2.921  33.593 237.848  1.00  0.00    -0.353 N 
ATOM      3  C1  UNK     1       1.331  33.957 233.962  1.00  0.00     0.079 C 
ATOM      4  C2  UNK     1       1.846  32.571 234.413  1.00  0.00     0.020 C 
ATOM      5  C3  UNK     1       1.813  32.371 235.936  1.00  0.00     0.059 C 
ATOM      6  C4  UNK     1       2.402  33.569 236.586  1.00  0.00     0.026 A 
ATOM      7  C5  UNK     1       2.519  34.828 236.039  1.00  0.00     0.045 A 
ATOM      8  C6  UNK     1       2.042  35.105 234.694  1.00  0.00     0.168 C 
ATOM      9  C8  UNK     1       3.147  35.659 237.012  1.00  0.00     0.007 A 
ATOM     10  C9  UNK     1       3.387  34.859 238.136  1.00  0.00     0.045 A 
ATOM     11  C10 UNK     1       2.982  32.464 238.754  1.00  0.00     0.156 C 
ATOM     12  C11 UNK     1       3.538  37.014 237.057  1.00  0.00     0.015 A 
ATOM     13  C12 UNK     1       3.997  35.349 239.296  1.00  0.00     0.030 A 
ATOM     14  C15 UNK     1       4.148  37.515 238.212  1.00  0.00     0.001 A 
ATOM     15  C16 UNK     1       4.373  36.694 239.313  1.00  0.00     0.002 A 
ENDROOT
BRANCH   3  16
ATOM     16  C7  UNK     1      -0.178  34.101 234.145  1.00  0.00     0.142 C 
BRANCH  16  17
ATOM     17  N2  UNK     1      -0.740  35.113 233.263  1.00  0.00    -0.345 N 
ATOM     18  C13 UNK     1      -1.290  36.298 233.640  1.00  0.00     0.079 A 
ATOM     19  N3  UNK     1      -1.706  36.986 232.599  1.00  0.00    -0.355 N 
ATOM     20  C18 UNK     1      -1.387  36.718 235.053  1.00  0.00     0.089 C 
ATOM     21  C17 UNK     1      -1.406  36.199 231.516  1.00  0.00     0.106 A 
ATOM     22  H3  UNK     1      -2.154  37.903 232.598  1.00  0.00     0.166 HD
ATOM     23  C14 UNK     1      -0.802  35.026 231.907  1.00  0.00     0.109 A 
ENDBRANCH  16  17
ENDBRANCH   3  16
TORSDOF 2
ENDMDL
MODEL 6
REMARK VINA RESULT:      -6.1      2.571      5.980
REMARK  2 active torsions:
REMARK  status: ('A' for Active; 'I' for Inactive)
REMARK    1  A    between atoms: N2_3  and  C7_12 
REMARK    2  A    between atoms: C1_6  and  C7_12 
ROOT
ATOM      1  O1  UNK     1       1.098  32.477 233.589  1.00  0.00    -0.292 OA
ATOM      2  N1  UNK     1       2.958  33.804 237.552  1.00  0.00    -0.353 N 
ATOM      3  C1  UNK     1       0.076  34.442 234.543  1.00  0.00     0.079 C 
ATOM      4  C2  UNK     1      -0.258  34.897 235.982  1.00  0.00     0.020 C 
ATOM      5  C3  UNK     1       0.984  35.205 236.832  1.00  0.00     0.059 C 
ATOM      6  C4  UNK     1       1.959  34.097 236.669  1.00  0.00     0.026 A 
ATOM      7  C5  UNK     1       2.020  33.201 235.625  1.00  0.00     0.045 A 
ATOM      8  C6  UNK     1       1.074  33.274 234.523  1.00  0.00     0.168 C 
ATOM      9  C8  UNK     1       3.103  32.313 235.886  1.00  0.00     0.007 A 
ATOM     10  C9  UNK     1       3.673  32.715 237.101  1.00  0.00     0.045 A 
ATOM     11  C10 UNK     1       3.229  34.520 238.782  1.00  0.00     0.156 C 
ATOM     12  C11 UNK     1       3.663  31.205 235.216  1.00  0.00     0.015 A 
ATOM     13  C12 UNK     1       4.771  32.063 237.672  1.00  0.00     0.030 A 
ATOM     14  C15 UNK     1       4.762  30.546 235.778  1.00  0.00     0.001 A 
ATOM     15  C16 UNK     1       5.306  30.969 236.986  1.00  0.00     0.002 A 
ENDROOT
BRANCH   3  16
ATOM     16  C7  UNK     1       0.619  35.584 233.687  1.00  0.00     0.142 C 
BRANCH  16  17
ATOM     17  N2  UNK     1      -0.240  35.866 232.547  1.00  0.00    -0.345 N 
ATOM     18  C13 UNK     1      -0.027  35.484 231.259  1.00  0.00     0.079 A 
ATOM     19  N3  UNK     1      -0.992  35.900 230.469  1.00  0.00    -0.355 N 
ATOM     20  C18 UNK     1       1.156  34.701 230.847  1.00  0.00     0.089 C 
ATOM     21  C17 UNK     1      -1.854  36.576 231.295  1.00  0.00     0.106 A 
ATOM     22  H3  UNK     1      -1.080  35.752 229.463  1.00  0.00     0.166 HD
ATOM     23  C14 UNK     1      -1.405  36.566 232.596  1.00  0.00     0.109 A 
ENDBRANCH  16  17
ENDBRANCH   3  16
TORSDOF 2
ENDMDL
MODEL 7
REMARK VINA RESULT:      -5.9      2.425      3.363
REMARK  2 active torsions:
REMARK  status: ('A' for Active; 'I' for Inactive)
REMARK    1  A    between atoms: N2_3  and  C7_12 
REMARK    2  A    between atoms: C1_6  and  C7_12 
ROOT
ATOM      1  O1  UNK     1      -1.644  36.885 233.833  1.00  0.00    -0.292 OA
ATOM      2  N1  UNK     1       0.033  34.489 230.315  1.00  0.00    -0.353 N 
ATOM      3  C1  UNK     1       0.256  35.511 234.398  1.00  0.00     0.079 C 
ATOM      4  C2  UNK     1       0.741  34.107 233.969  1.00  0.00     0.020 C 
ATOM      5  C3  UNK     1       1.206  34.040 232.506  1.00  0.00     0.059 C 
ATOM      6  C4  UNK     1       0.189  34.706 231.653  1.00  0.00     0.026 A 
ATOM      7  C5  UNK     1      -0.743  35.636 232.058  1.00  0.00     0.045 A 
ATOM      8  C6  UNK     1      -0.811  36.070 233.444  1.00  0.00     0.168 C 
ATOM      9  C8  UNK     1      -1.511  35.997 230.913  1.00  0.00     0.007 A 
ATOM     10  C9  UNK     1      -1.002  35.263 229.835  1.00  0.00     0.045 A 
ATOM     11  C10 UNK     1       0.826  33.580 229.512  1.00  0.00     0.156 C 
ATOM     12  C11 UNK     1      -2.590  36.876 230.678  1.00  0.00     0.015 A 
ATOM     13  C12 UNK     1      -1.520  35.367 228.539  1.00  0.00     0.030 A 
ATOM     14  C15 UNK     1      -3.115  36.988 229.386  1.00  0.00     0.001 A 
ATOM     15  C16 UNK     1      -2.587  36.245 228.335  1.00  0.00     0.002 A 
ENDROOT
BRANCH   3  16
ATOM     16  C7  UNK     1       1.404  36.511 234.510  1.00  0.00     0.142 C 
BRANCH  16  17
ATOM     17  N2  UNK     1       1.964  36.548 235.853  1.00  0.00    -0.345 N 
ATOM     18  C13 UNK     1       1.450  37.208 236.926  1.00  0.00     0.079 A 
ATOM     19  N3  UNK     1       2.197  37.041 237.995  1.00  0.00    -0.355 N 
ATOM     20  C18 UNK     1       0.205  38.000 236.852  1.00  0.00     0.089 C 
ATOM     21  C17 UNK     1       3.231  36.241 237.578  1.00  0.00     0.106 A 
ATOM     22  H3  UNK     1       2.042  37.423 238.928  1.00  0.00     0.166 HD
ATOM     23  C14 UNK     1       3.105  35.921 236.246  1.00  0.00     0.109 A 
ENDBRANCH  16  17
ENDBRANCH   3  16
TORSDOF 2
ENDMDL
MODEL 8
REMARK VINA RESULT:      -5.8      5.417      7.657
REMARK  2 active torsions:
REMARK  status: ('A' for Active; 'I' for Inactive)
REMARK    1  A    between atoms: N2_3  and  C7_12 
REMARK    2  A    between atoms: C1_6  and  C7_12 
ROOT
ATOM      1  O1  UNK     1       0.605  36.741 228.256  1.00  0.00    -0.292 OA
ATOM      2  N1  UNK     1      -2.493  35.615 231.428  1.00  0.00    -0.353 N 
ATOM      3  C1  UNK     1      -1.468  37.961 228.080  1.00  0.00     0.079 C 
ATOM      4  C2  UNK     1      -2.956  37.601 228.292  1.00  0.00     0.020 C 
ATOM      5  C3  UNK     1      -3.317  37.320 229.758  1.00  0.00     0.059 C 
ATOM      6  C4  UNK     1      -2.300  36.403 230.332  1.00  0.00     0.026 A 
ATOM      7  C5  UNK     1      -1.019  36.201 229.865  1.00  0.00     0.045 A 
ATOM      8  C6  UNK     1      -0.527  36.917 228.700  1.00  0.00     0.168 C 
ATOM      9  C8  UNK     1      -0.404  35.235 230.714  1.00  0.00     0.007 A 
ATOM     10  C9  UNK     1      -1.351  34.886 231.685  1.00  0.00     0.045 A 
ATOM     11  C10 UNK     1      -3.712  35.543 232.208  1.00  0.00     0.156 C 
ATOM     12  C11 UNK     1       0.864  34.619 230.761  1.00  0.00     0.015 A 
ATOM     13  C12 UNK     1      -1.089  33.954 232.695  1.00  0.00     0.030 A 
ATOM     14  C15 UNK     1       1.138  33.686 231.767  1.00  0.00     0.001 A 
ATOM     15  C16 UNK     1       0.176  33.360 232.718  1.00  0.00     0.002 A 
ENDROOT
BRANCH   3  16
ATOM     16  C7  UNK     1      -1.123  39.341 228.634  1.00  0.00     0.142 C 
BRANCH  16  17
ATOM     17  N2  UNK     1      -0.338  40.125 227.693  1.00  0.00    -0.345 N 
ATOM     18  C13 UNK     1      -0.821  40.915 226.696  1.00  0.00     0.079 A 
ATOM     19  N3  UNK     1       0.153  41.487 226.023  1.00  0.00    -0.355 N 
ATOM     20  C18 UNK     1      -2.266  41.078 226.440  1.00  0.00     0.089 C 
ATOM     21  C17 UNK     1       1.303  41.038 226.620  1.00  0.00     0.106 A 
ATOM     22  H3  UNK     1       0.070  42.124 225.230  1.00  0.00     0.166 HD
ATOM     23  C14 UNK     1       1.021  40.188 227.665  1.00  0.00     0.109 A 
ENDBRANCH  16  17
ENDBRANCH   3  16
TORSDOF 2
ENDMDL
MODEL 9
REMARK VINA RESULT:      -5.7      1.976      6.301
REMARK  2 active torsions:
REMARK  status: ('A' for Active; 'I' for Inactive)
REMARK    1  A    between atoms: N2_3  and  C7_12 
REMARK    2  A    between atoms: C1_6  and  C7_12 
ROOT
ATOM      1  O1  UNK     1       0.882  33.412 233.251  1.00  0.00    -0.292 OA
ATOM      2  N1  UNK     1       0.382  36.872 236.203  1.00  0.00    -0.353 N 
ATOM      3  C1  UNK     1      -1.180  34.636 232.989  1.00  0.00     0.079 C 
ATOM      4  C2  UNK     1      -2.174  35.301 233.968  1.00  0.00     0.020 C 
ATOM      5  C3  UNK     1      -1.603  36.537 234.677  1.00  0.00     0.059 C 
ATOM      6  C4  UNK     1      -0.249  36.208 235.191  1.00  0.00     0.026 A 
ATOM      7  C5  UNK     1       0.579  35.202 234.743  1.00  0.00     0.045 A 
ATOM      8  C6  UNK     1       0.169  34.326 233.657  1.00  0.00     0.168 C 
ATOM      9  C8  UNK     1       1.770  35.249 235.524  1.00  0.00     0.007 A 
ATOM     10  C9  UNK     1       1.619  36.306 236.431  1.00  0.00     0.045 A 
ATOM     11  C10 UNK     1      -0.160  37.998 236.936  1.00  0.00     0.156 C 
ATOM     12  C11 UNK     1       2.966  34.503 235.556  1.00  0.00     0.015 A 
ATOM     13  C12 UNK     1       2.604  36.648 237.363  1.00  0.00     0.030 A 
ATOM     14  C15 UNK     1       3.959  34.836 236.484  1.00  0.00     0.001 A 
ATOM     15  C16 UNK     1       3.779  35.892 237.373  1.00  0.00     0.002 A 
ENDROOT
BRANCH   3  16
ATOM     16  C7  UNK     1      -0.940  35.484 231.742  1.00  0.00     0.142 C 
BRANCH  16  17
ATOM     17  N2  UNK     1      -0.924  34.679 230.531  1.00  0.00    -0.345 N 
ATOM     18  C13 UNK     1       0.153  34.431 229.737  1.00  0.00     0.079 A 
ATOM     19  N3  UNK     1      -0.168  33.666 228.717  1.00  0.00    -0.355 N 
ATOM     20  C18 UNK     1       1.495  34.975 230.026  1.00  0.00     0.089 C 
ATOM     21  C17 UNK     1      -1.509  33.420 228.872  1.00  0.00     0.106 A 
ATOM     22  H3  UNK     1       0.445  33.330 227.974  1.00  0.00     0.166 HD
ATOM     23  C14 UNK     1      -2.001  34.041 229.997  1.00  0.00     0.109 A 
ENDBRANCH  16  17
ENDBRANCH   3  16
TORSDOF 2
ENDMDL
