MODEL 1
REMARK VINA RESULT:      -6.2      0.000      0.000
REMARK  4 active torsions:
REMARK  status: ('A' for Active; 'I' for Inactive)
REMARK    1  A    between atoms: O1_1  and  C4_8 
REMARK    2  A    between atoms: C1_5  and  C2_6 
REMARK    3  A    between atoms: C3_7  and  C11_15 
REMARK    4  A    between atoms: C11_15  and  C12_16 
ROOT
ATOM      1  C2  UNK     1       1.954  35.999 237.113  1.00  0.00    -0.016 A 
ATOM      2  C3  UNK     1      -0.679  35.862 236.345  1.00  0.00    -0.036 A 
ATOM      3  C4  UNK     1       1.460  34.792 236.683  1.00  0.00     0.079 A 
ATOM      4  C5  UNK     1       0.123  34.723 236.294  1.00  0.00    -0.021 A 
ATOM      5  C6  UNK     1      -0.144  37.072 236.788  1.00  0.00    -0.054 A 
ATOM      6  C7  UNK     1       1.195  37.141 237.177  1.00  0.00     0.018 A 
ATOM      7  C13 UNK     1      -0.445  33.422 235.820  1.00  0.00     0.052 C 
ATOM      8  C14 UNK     1      -0.979  38.309 236.849  1.00  0.00     0.049 C 
ENDROOT
BRANCH   2   9
ATOM      9  C11 UNK     1      -2.112  35.790 235.926  1.00  0.00     0.115 C 
BRANCH   9  10
ATOM     10  C12 UNK     1      -2.255  35.902 234.444  1.00  0.00     0.077 A 
ATOM     11  N1  UNK     1      -1.429  36.712 233.736  1.00  0.00    -0.378 N 
ATOM     12  C15 UNK     1      -1.771  36.639 232.346  1.00  0.00     0.140 A 
ATOM     13  H21 UNK     1      -0.682  37.287 234.104  1.00  0.00     0.160 HD
ATOM     14  C16 UNK     1      -2.947  35.642 232.377  1.00  0.00     0.140 A 
ATOM     15  N2  UNK     1      -3.170  35.230 233.800  1.00  0.00    -0.378 N 
ATOM     16  H2  UNK     1      -3.864  34.583 234.173  1.00  0.00     0.160 HD
ENDBRANCH   9  10
ENDBRANCH   2   9
BRANCH   3  17
ATOM     17  O1  UNK     1       2.247  33.678 236.633  1.00  0.00    -0.360 OA
ATOM     18  H24 UNK     1       2.632  33.565 235.750  1.00  0.00     0.217 HD
ENDBRANCH   3  17
BRANCH   1  19
ATOM     19  C1  UNK     1       3.425  36.095 237.548  1.00  0.00    -0.021 C 
ATOM     20  C8  UNK     1       3.812  37.577 237.745  1.00  0.00     0.019 C 
ATOM     21  C9  UNK     1       4.331  35.474 236.463  1.00  0.00     0.019 C 
ATOM     22  C10 UNK     1       3.734  35.364 238.874  1.00  0.00     0.019 C 
ENDBRANCH   1  19
TORSDOF 4
ENDMDL
MODEL 2
REMARK VINA RESULT:      -5.9      2.829      4.318
REMARK  4 active torsions:
REMARK  status: ('A' for Active; 'I' for Inactive)
REMARK    1  A    between atoms: O1_1  and  C4_8 
REMARK    2  A    between atoms: C1_5  and  C2_6 
REMARK    3  A    between atoms: C3_7  and  C11_15 
REMARK    4  A    between atoms: C11_15  and  C12_16 
ROOT
ATOM      1  C2  UNK     1       3.438  32.709 236.223  1.00  0.00    -0.016 A 
ATOM      2  C3  UNK     1       2.442  35.078 235.255  1.00  0.00    -0.036 A 
ATOM      3  C4  UNK     1       2.551  32.666 235.176  1.00  0.00     0.079 A 
ATOM      4  C5  UNK     1       2.045  33.869 234.685  1.00  0.00    -0.021 A 
ATOM      5  C6  UNK     1       3.345  35.084 236.319  1.00  0.00    -0.054 A 
ATOM      6  C7  UNK     1       3.852  33.880 236.810  1.00  0.00     0.018 A 
ATOM      7  C13 UNK     1       1.077  33.856 233.544  1.00  0.00     0.052 C 
ATOM      8  C14 UNK     1       3.790  36.364 236.946  1.00  0.00     0.049 C 
ENDROOT
BRANCH   2   9
ATOM      9  C11 UNK     1       1.902  36.369 234.729  1.00  0.00     0.115 C 
BRANCH   9  10
ATOM     10  C12 UNK     1       0.748  36.852 235.544  1.00  0.00     0.077 A 
ATOM     11  N1  UNK     1      -0.368  36.090 235.669  1.00  0.00    -0.378 N 
ATOM     12  C15 UNK     1      -1.317  36.774 236.497  1.00  0.00     0.140 A 
ATOM     13  H21 UNK     1      -0.530  35.181 235.256  1.00  0.00     0.160 HD
ATOM     14  C16 UNK     1      -0.551  38.070 236.827  1.00  0.00     0.140 A 
ATOM     15  N2  UNK     1       0.785  38.006 236.151  1.00  0.00    -0.378 N 
ATOM     16  H2  UNK     1       1.536  38.695 236.162  1.00  0.00     0.160 HD
ENDBRANCH   9  10
ENDBRANCH   2   9
BRANCH   3  17
ATOM     17  O1  UNK     1       2.164  31.482 234.618  1.00  0.00    -0.360 OA
ATOM     18  H24 UNK     1       2.227  30.759 235.261  1.00  0.00     0.217 HD
ENDBRANCH   3  17
BRANCH   1  19
ATOM     19  C1  UNK     1       4.006  31.394 236.780  1.00  0.00    -0.021 C 
ATOM     20  C8  UNK     1       2.865  30.555 237.396  1.00  0.00     0.019 C 
ATOM     21  C9  UNK     1       5.056  31.700 237.869  1.00  0.00     0.019 C 
ATOM     22  C10 UNK     1       4.696  30.510 235.716  1.00  0.00     0.019 C 
ENDBRANCH   1  19
TORSDOF 4
ENDMDL
MODEL 3
REMARK VINA RESULT:      -5.9      1.186      2.683
REMARK  4 active torsions:
REMARK  status: ('A' for Active; 'I' for Inactive)
REMARK    1  A    between atoms: O1_1  and  C4_8 
REMARK    2  A    between atoms: C1_5  and  C2_6 
REMARK    3  A    between atoms: C3_7  and  C11_15 
REMARK    4  A    between atoms: C11_15  and  C12_16 
ROOT
ATOM      1  C2  UNK     1       1.860  35.244 236.914  1.00  0.00    -0.016 A 
ATOM      2  C3  UNK     1      -0.688  35.625 235.964  1.00  0.00    -0.036 A 
ATOM      3  C4  UNK     1       1.250  36.452 237.145  1.00  0.00     0.079 A 
ATOM      4  C5  UNK     1      -0.044  36.646 236.662  1.00  0.00    -0.021 A 
ATOM      5  C6  UNK     1      -0.038  34.410 235.747  1.00  0.00    -0.054 A 
ATOM      6  C7  UNK     1       1.257  34.216 236.231  1.00  0.00     0.018 A 
ATOM      7  C13 UNK     1      -0.736  37.951 236.899  1.00  0.00     0.052 C 
ATOM      8  C14 UNK     1      -0.706  33.299 235.005  1.00  0.00     0.049 C 
ENDROOT
BRANCH   2   9
ATOM      9  C11 UNK     1      -2.076  35.830 235.447  1.00  0.00     0.115 C 
BRANCH   9  10
ATOM     10  C12 UNK     1      -2.079  36.092 233.977  1.00  0.00     0.077 A 
ATOM     11  N1  UNK     1      -3.065  35.590 233.194  1.00  0.00    -0.378 N 
ATOM     12  C15 UNK     1      -2.838  35.984 231.835  1.00  0.00     0.140 A 
ATOM     13  H21 UNK     1      -3.849  35.025 233.495  1.00  0.00     0.160 HD
ATOM     14  C16 UNK     1      -1.539  36.803 231.972  1.00  0.00     0.140 A 
ATOM     15  N2  UNK     1      -1.140  36.805 233.416  1.00  0.00    -0.378 N 
ATOM     16  H2  UNK     1      -0.334  37.252 233.852  1.00  0.00     0.160 HD
ENDBRANCH   9  10
ENDBRANCH   2   9
BRANCH   3  17
ATOM     17  O1  UNK     1       1.882  37.450 237.829  1.00  0.00    -0.360 OA
ATOM     18  H24 UNK     1       2.845  37.351 237.775  1.00  0.00     0.217 HD
ENDBRANCH   3  17
BRANCH   1  19
ATOM     19  C1  UNK     1       3.287  35.011 237.436  1.00  0.00    -0.021 C 
ATOM     20  C8  UNK     1       3.892  33.764 236.756  1.00  0.00     0.019 C 
ATOM     21  C9  UNK     1       3.252  34.790 238.964  1.00  0.00     0.019 C 
ATOM     22  C10 UNK     1       4.250  36.189 237.168  1.00  0.00     0.019 C 
ENDBRANCH   1  19
TORSDOF 4
ENDMDL
MODEL 4
REMARK VINA RESULT:      -5.6      3.112      5.866
REMARK  4 active torsions:
REMARK  status: ('A' for Active; 'I' for Inactive)
REMARK    1  A    between atoms: O1_1  and  C4_8 
REMARK    2  A    between atoms: C1_5  and  C2_6 
REMARK    3  A    between atoms: C3_7  and  C11_15 
REMARK    4  A    between atoms: C11_15  and  C12_16 
ROOT
ATOM      1  C2  UNK     1      -0.735  34.752 236.491  1.00  0.00    -0.016 A 
ATOM      2  C3  UNK     1       1.905  35.415 236.132  1.00  0.00    -0.036 A 
ATOM      3  C4  UNK     1       0.156  33.750 236.196  1.00  0.00     0.079 A 
ATOM      4  C5  UNK     1       1.497  34.087 236.013  1.00  0.00    -0.021 A 
ATOM      5  C6  UNK     1       0.972  36.408 236.432  1.00  0.00    -0.054 A 
ATOM      6  C7  UNK     1      -0.369  36.070 236.615  1.00  0.00     0.018 A 
ATOM      7  C13 UNK     1       2.493  33.018 235.691  1.00  0.00     0.052 C 
ATOM      8  C14 UNK     1       1.383  37.837 236.568  1.00  0.00     0.049 C 
ENDROOT
BRANCH   2   9
ATOM      9  C11 UNK     1       3.343  35.778 235.937  1.00  0.00     0.115 C 
BRANCH   9  10
ATOM     10  C12 UNK     1       4.016  36.063 237.240  1.00  0.00     0.077 A 
ATOM     11  N1  UNK     1       3.829  35.240 238.301  1.00  0.00    -0.378 N 
ATOM     12  C15 UNK     1       4.580  35.731 239.419  1.00  0.00     0.140 A 
ATOM     13  H21 UNK     1       3.257  34.405 238.327  1.00  0.00     0.160 HD
ATOM     14  C16 UNK     1       5.233  36.989 238.814  1.00  0.00     0.140 A 
ATOM     15  N2  UNK     1       4.792  37.101 237.386  1.00  0.00    -0.378 N 
ATOM     16  H2  UNK     1       5.038  37.814 236.700  1.00  0.00     0.160 HD
ENDBRANCH   9  10
ENDBRANCH   2   9
BRANCH   3  17
ATOM     17  O1  UNK     1      -0.245  32.451 236.081  1.00  0.00    -0.360 OA
ATOM     18  H24 UNK     1      -1.014  32.376 235.494  1.00  0.00     0.217 HD
ENDBRANCH   3  17
BRANCH   1  19
ATOM     19  C1  UNK     1      -2.218  34.402 236.694  1.00  0.00    -0.021 C 
ATOM     20  C8  UNK     1      -3.006  35.676 237.068  1.00  0.00     0.019 C 
ATOM     21  C9  UNK     1      -2.357  33.367 237.832  1.00  0.00     0.019 C 
ATOM     22  C10 UNK     1      -2.895  33.798 235.443  1.00  0.00     0.019 C 
ENDBRANCH   1  19
TORSDOF 4
ENDMDL
MODEL 5
REMARK VINA RESULT:      -5.5      2.887      4.586
REMARK  4 active torsions:
REMARK  status: ('A' for Active; 'I' for Inactive)
REMARK    1  A    between atoms: O1_1  and  C4_8 
REMARK    2  A    between atoms: C1_5  and  C2_6 
REMARK    3  A    between atoms: C3_7  and  C11_15 
REMARK    4  A    between atoms: C11_15  and  C12_16 
ROOT
ATOM      1  C2  UNK     1       3.193  32.440 236.364  1.00  0.00    -0.016 A 
ATOM      2  C3  UNK     1       2.443  34.895 235.388  1.00  0.00    -0.036 A 
ATOM      3  C4  UNK     1       3.646  33.565 237.007  1.00  0.00     0.079 A 
ATOM      4  C5  UNK     1       3.265  34.812 236.511  1.00  0.00    -0.021 A 
ATOM      5  C6  UNK     1       2.002  33.730 234.758  1.00  0.00    -0.054 A 
ATOM      6  C7  UNK     1       2.383  32.483 235.255  1.00  0.00     0.018 A 
ATOM      7  C13 UNK     1       3.741  36.057 237.190  1.00  0.00     0.052 C 
ATOM      8  C14 UNK     1       1.119  33.790 233.556  1.00  0.00     0.049 C 
ENDROOT
BRANCH   2   9
ATOM      9  C11 UNK     1       2.032  36.230 234.855  1.00  0.00     0.115 C 
BRANCH   9  10
ATOM     10  C12 UNK     1       0.859  36.778 235.599  1.00  0.00     0.077 A 
ATOM     11  N1  UNK     1      -0.278  36.047 235.717  1.00  0.00    -0.378 N 
ATOM     12  C15 UNK     1      -1.243  36.792 236.471  1.00  0.00     0.140 A 
ATOM     13  H21 UNK     1      -0.445  35.122 235.343  1.00  0.00     0.160 HD
ATOM     14  C16 UNK     1      -0.461  38.087 236.766  1.00  0.00     0.140 A 
ATOM     15  N2  UNK     1       0.898  37.961 236.148  1.00  0.00    -0.378 N 
ATOM     16  H2  UNK     1       1.665  38.633 236.154  1.00  0.00     0.160 HD
ENDBRANCH   9  10
ENDBRANCH   2   9
BRANCH   3  17
ATOM     17  O1  UNK     1       4.449  33.482 238.107  1.00  0.00    -0.360 OA
ATOM     18  H24 UNK     1       3.938  33.230 238.891  1.00  0.00     0.217 HD
ENDBRANCH   3  17
BRANCH   1  19
ATOM     19  C1  UNK     1       3.603  31.057 236.894  1.00  0.00    -0.021 C 
ATOM     20  C8  UNK     1       5.138  30.903 236.813  1.00  0.00     0.019 C 
ATOM     21  C9  UNK     1       2.938  29.955 236.041  1.00  0.00     0.019 C 
ATOM     22  C10 UNK     1       3.197  30.804 238.363  1.00  0.00     0.019 C 
ENDBRANCH   1  19
TORSDOF 4
ENDMDL
MODEL 6
REMARK VINA RESULT:      -5.4      6.176      9.095
REMARK  4 active torsions:
REMARK  status: ('A' for Active; 'I' for Inactive)
REMARK    1  A    between atoms: O1_1  and  C4_8 
REMARK    2  A    between atoms: C1_5  and  C2_6 
REMARK    3  A    between atoms: C3_7  and  C11_15 
REMARK    4  A    between atoms: C11_15  and  C12_16 
ROOT
ATOM      1  C2  UNK     1       1.120  40.204 227.689  1.00  0.00    -0.016 A 
ATOM      2  C3  UNK     1      -0.678  38.174 228.121  1.00  0.00    -0.036 A 
ATOM      3  C4  UNK     1      -0.193  40.532 227.921  1.00  0.00     0.079 A 
ATOM      4  C5  UNK     1      -1.106  39.501 228.139  1.00  0.00    -0.021 A 
ATOM      5  C6  UNK     1       0.664  37.877 227.882  1.00  0.00    -0.054 A 
ATOM      6  C7  UNK     1       1.578  38.909 227.663  1.00  0.00     0.018 A 
ATOM      7  C13 UNK     1      -2.544  39.826 228.396  1.00  0.00     0.052 C 
ATOM      8  C14 UNK     1       1.149  36.465 227.859  1.00  0.00     0.049 C 
ENDROOT
BRANCH   2   9
ATOM      9  C11 UNK     1      -1.656  37.067 228.357  1.00  0.00     0.115 C 
BRANCH   9  10
ATOM     10  C12 UNK     1      -1.579  36.561 229.760  1.00  0.00     0.077 A 
ATOM     11  N1  UNK     1      -1.706  37.416 230.804  1.00  0.00    -0.378 N 
ATOM     12  C15 UNK     1      -1.598  36.683 232.031  1.00  0.00     0.140 A 
ATOM     13  H21 UNK     1      -1.855  38.416 230.754  1.00  0.00     0.160 HD
ATOM     14  C16 UNK     1      -1.383  35.249 231.509  1.00  0.00     0.140 A 
ATOM     15  N2  UNK     1      -1.391  35.294 230.011  1.00  0.00    -0.378 N 
ATOM     16  H2  UNK     1      -1.277  34.525 229.351  1.00  0.00     0.160 HD
ENDBRANCH   9  10
ENDBRANCH   2   9
BRANCH   3  17
ATOM     17  O1  UNK     1      -0.610  41.831 227.939  1.00  0.00    -0.360 OA
ATOM     18  H24 UNK     1      -0.879  42.122 227.054  1.00  0.00     0.217 HD
ENDBRANCH   3  17
BRANCH   1  19
ATOM     19  C1  UNK     1       2.142  41.326 227.444  1.00  0.00    -0.021 C 
ATOM     20  C8  UNK     1       2.052  41.798 225.976  1.00  0.00     0.019 C 
ATOM     21  C9  UNK     1       3.567  40.801 227.722  1.00  0.00     0.019 C 
ATOM     22  C10 UNK     1       1.931  42.570 228.336  1.00  0.00     0.019 C 
ENDBRANCH   1  19
TORSDOF 4
ENDMDL
MODEL 7
REMARK VINA RESULT:      -5.4      5.758      8.962
REMARK  4 active torsions:
REMARK  status: ('A' for Active; 'I' for Inactive)
REMARK    1  A    between atoms: O1_1  and  C4_8 
REMARK    2  A    between atoms: C1_5  and  C2_6 
REMARK    3  A    between atoms: C3_7  and  C11_15 
REMARK    4  A    between atoms: C11_15  and  C12_16 
ROOT
ATOM      1  C2  UNK     1       0.479  39.458 227.814  1.00  0.00    -0.016 A 
ATOM      2  C3  UNK     1       0.008  36.798 228.301  1.00  0.00    -0.036 A 
ATOM      3  C4  UNK     1      -0.657  39.111 228.501  1.00  0.00     0.079 A 
ATOM      4  C5  UNK     1      -0.897  37.760 228.748  1.00  0.00    -0.021 A 
ATOM      5  C6  UNK     1       1.153  37.187 227.605  1.00  0.00    -0.054 A 
ATOM      6  C7  UNK     1       1.393  38.539 227.358  1.00  0.00     0.018 A 
ATOM      7  C13 UNK     1      -2.126  37.348 229.495  1.00  0.00     0.052 C 
ATOM      8  C14 UNK     1       2.140  36.178 227.118  1.00  0.00     0.049 C 
ENDROOT
BRANCH   2   9
ATOM      9  C11 UNK     1      -0.246  35.348 228.566  1.00  0.00     0.115 C 
BRANCH   9  10
ATOM     10  C12 UNK     1       0.097  34.982 229.973  1.00  0.00     0.077 A 
ATOM     11  N1  UNK     1      -0.850  34.466 230.796  1.00  0.00    -0.378 N 
ATOM     12  C15 UNK     1      -0.268  34.200 232.078  1.00  0.00     0.140 A 
ATOM     13  H21 UNK     1      -1.819  34.286 230.567  1.00  0.00     0.160 HD
ATOM     14  C16 UNK     1       1.186  34.658 231.851  1.00  0.00     0.140 A 
ATOM     15  N2  UNK     1       1.304  35.147 230.440  1.00  0.00    -0.378 N 
ATOM     16  H2  UNK     1       2.125  35.518 229.962  1.00  0.00     0.160 HD
ENDBRANCH   9  10
ENDBRANCH   2   9
BRANCH   3  17
ATOM     17  O1  UNK     1      -1.542  40.054 228.939  1.00  0.00    -0.360 OA
ATOM     18  H24 UNK     1      -1.395  40.901 228.490  1.00  0.00     0.217 HD
ENDBRANCH   3  17
BRANCH   1  19
ATOM     19  C1  UNK     1       0.760  40.943 227.530  1.00  0.00    -0.021 C 
ATOM     20  C8  UNK     1       2.039  41.075 226.674  1.00  0.00     0.019 C 
ATOM     21  C9  UNK     1       0.960  41.699 228.861  1.00  0.00     0.019 C 
ATOM     22  C10 UNK     1      -0.376  41.659 226.765  1.00  0.00     0.019 C 
ENDBRANCH   1  19
TORSDOF 4
ENDMDL
MODEL 8
REMARK VINA RESULT:      -5.2      1.741      2.705
REMARK  4 active torsions:
REMARK  status: ('A' for Active; 'I' for Inactive)
REMARK    1  A    between atoms: O1_1  and  C4_8 
REMARK    2  A    between atoms: C1_5  and  C2_6 
REMARK    3  A    between atoms: C3_7  and  C11_15 
REMARK    4  A    between atoms: C11_15  and  C12_16 
ROOT
ATOM      1  C2  UNK     1       2.008  35.520 236.235  1.00  0.00    -0.016 A 
ATOM      2  C3  UNK     1      -0.171  36.245 234.730  1.00  0.00    -0.036 A 
ATOM      3  C4  UNK     1       1.164  36.484 236.729  1.00  0.00     0.079 A 
ATOM      4  C5  UNK     1       0.057  36.852 235.964  1.00  0.00    -0.021 A 
ATOM      5  C6  UNK     1       0.708  35.270 234.258  1.00  0.00    -0.054 A 
ATOM      6  C7  UNK     1       1.815  34.901 235.024  1.00  0.00     0.018 A 
ATOM      7  C13 UNK     1      -0.883  37.898 236.475  1.00  0.00     0.052 C 
ATOM      8  C14 UNK     1       0.486  34.602 232.941  1.00  0.00     0.049 C 
ENDROOT
BRANCH   2   9
ATOM      9  C11 UNK     1      -1.358  36.637 233.909  1.00  0.00     0.115 C 
BRANCH   9  10
ATOM     10  C12 UNK     1      -2.437  35.607 233.980  1.00  0.00     0.077 A 
ATOM     11  N1  UNK     1      -3.183  35.320 232.885  1.00  0.00    -0.378 N 
ATOM     12  C15 UNK     1      -4.138  34.304 233.216  1.00  0.00     0.140 A 
ATOM     13  H21 UNK     1      -3.098  35.739 231.967  1.00  0.00     0.160 HD
ATOM     14  C16 UNK     1      -3.814  34.058 234.703  1.00  0.00     0.140 A 
ATOM     15  N2  UNK     1      -2.685  34.965 235.089  1.00  0.00    -0.378 N 
ATOM     16  H2  UNK     1      -2.225  35.057 235.994  1.00  0.00     0.160 HD
ENDBRANCH   9  10
ENDBRANCH   2   9
BRANCH   3  17
ATOM     17  O1  UNK     1       1.388  37.076 237.938  1.00  0.00    -0.360 OA
ATOM     18  H24 UNK     1       2.237  37.546 237.941  1.00  0.00     0.217 HD
ENDBRANCH   3  17
BRANCH   1  19
ATOM     19  C1  UNK     1       3.234  35.102 237.061  1.00  0.00    -0.021 C 
ATOM     20  C8  UNK     1       4.219  36.287 237.166  1.00  0.00     0.019 C 
ATOM     21  C9  UNK     1       3.943  33.913 236.377  1.00  0.00     0.019 C 
ATOM     22  C10 UNK     1       2.896  34.662 238.504  1.00  0.00     0.019 C 
ENDBRANCH   1  19
TORSDOF 4
ENDMDL
MODEL 9
REMARK VINA RESULT:      -5.2      8.285     11.338
REMARK  4 active torsions:
REMARK  status: ('A' for Active; 'I' for Inactive)
REMARK    1  A    between atoms: O1_1  and  C4_8 
REMARK    2  A    between atoms: C1_5  and  C2_6 
REMARK    3  A    between atoms: C3_7  and  C11_15 
REMARK    4  A    between atoms: C11_15  and  C12_16 
ROOT
ATOM      1  C2  UNK     1      -3.985  38.357 226.139  1.00  0.00    -0.016 A 
ATOM      2  C3  UNK     1      -2.189  39.595 227.807  1.00  0.00    -0.036 A 
ATOM      3  C4  UNK     1      -3.582  37.695 227.273  1.00  0.00     0.079 A 
ATOM      4  C5  UNK     1      -2.669  38.324 228.119  1.00  0.00    -0.021 A 
ATOM      5  C6  UNK     1      -2.620  40.238 226.646  1.00  0.00    -0.054 A 
ATOM      6  C7  UNK     1      -3.533  39.609 225.799  1.00  0.00     0.018 A 
ATOM      7  C13 UNK     1      -2.211  37.629 229.362  1.00  0.00     0.052 C 
ATOM      8  C14 UNK     1      -2.124  41.601 226.290  1.00  0.00     0.049 C 
ENDROOT
BRANCH   2   9
ATOM      9  C11 UNK     1      -1.212  40.271 228.715  1.00  0.00     0.115 C 
BRANCH   9  10
ATOM     10  C12 UNK     1       0.178  40.199 228.172  1.00  0.00     0.077 A 
ATOM     11  N1  UNK     1       0.631  39.056 227.599  1.00  0.00    -0.378 N 
ATOM     12  C15 UNK     1       1.982  39.249 227.163  1.00  0.00     0.140 A 
ATOM     13  H21 UNK     1       0.117  38.192 227.484  1.00  0.00     0.160 HD
ATOM     14  C16 UNK     1       2.232  40.709 227.589  1.00  0.00     0.140 A 
ATOM     15  N2  UNK     1       0.982  41.225 228.236  1.00  0.00    -0.378 N 
ATOM     16  H2  UNK     1       0.805  42.149 228.630  1.00  0.00     0.160 HD
ENDBRANCH   9  10
ENDBRANCH   2   9
BRANCH   3  17
ATOM     17  O1  UNK     1      -4.054  36.451 227.577  1.00  0.00    -0.360 OA
ATOM     18  H24 UNK     1      -3.664  36.126 228.403  1.00  0.00     0.217 HD
ENDBRANCH   3  17
BRANCH   1  19
ATOM     19  C1  UNK     1      -4.989  37.680 225.192  1.00  0.00    -0.021 C 
ATOM     20  C8  UNK     1      -5.191  38.557 223.937  1.00  0.00     0.019 C 
ATOM     21  C9  UNK     1      -6.344  37.503 225.911  1.00  0.00     0.019 C 
ATOM     22  C10 UNK     1      -4.544  36.283 224.704  1.00  0.00     0.019 C 
ENDBRANCH   1  19
TORSDOF 4
ENDMDL
