MODEL 1
REMARK VINA RESULT:      -5.0      0.000      0.000
REMARK  8 active torsions:
REMARK  status: ('A' for Active; 'I' for Inactive)
REMARK    1  A    between atoms: O1_2  and  C4_7 
REMARK    2  A    between atoms: O1_2  and  C10_13 
REMARK    3  A    between atoms: N1_3  and  C1_4 
REMARK    4  A    between atoms: N1_3  and  C2_5 
REMARK    5  A    between atoms: N1_3  and  C3_6 
REMARK    6  A    between atoms: C1_4  and  C4_7 
REMARK    7  A    between atoms: C2_5  and  C6_9 
REMARK    8  A    between atoms: C3_6  and  C7_10 
ROOT
ATOM      1  N1  UNK     1       0.760  36.150 235.295  1.00  0.00     0.100 N 
ENDROOT
BRANCH   1   2
ATOM      2  C1  UNK     1      -0.194  35.857 236.364  1.00  0.00     0.243 C 
ATOM      3  C5  UNK     1       0.053  34.453 236.917  1.00  0.00     0.045 C 
BRANCH   2   4
ATOM      4  C4  UNK     1      -1.617  36.014 235.826  1.00  0.00     0.211 C 
BRANCH   4   5
ATOM      5  O1  UNK     1      -1.587  36.716 234.589  1.00  0.00    -0.349 OA
BRANCH   5   6
ATOM      6  C10 UNK     1      -1.989  36.025 233.478  1.00  0.00     0.068 A 
ATOM      7  C14 UNK     1      -2.443  34.717 233.606  1.00  0.00     0.037 A 
ATOM      8  C16 UNK     1      -2.853  34.013 232.473  1.00  0.00     0.003 A 
ATOM      9  C18 UNK     1      -2.803  34.622 231.219  1.00  0.00     0.000 A 
ATOM     10  C17 UNK     1      -2.347  35.933 231.097  1.00  0.00     0.003 A 
ATOM     11  C15 UNK     1      -1.938  36.637 232.230  1.00  0.00     0.037 A 
ENDBRANCH   5   6
ENDBRANCH   4   5
ENDBRANCH   2   4
ENDBRANCH   1   2
BRANCH   1  12
ATOM     12  C2  UNK     1       1.554  34.963 234.980  1.00  0.00     0.311 C 
BRANCH  12  13
ATOM     13  C6  UNK     1       1.297  34.472 233.579  1.00  0.00    -0.030 A 
ATOM     14  C8  UNK     1       1.453  35.344 232.510  1.00  0.00     0.009 A 
ATOM     15  C11 UNK     1       1.214  34.890 231.213  1.00  0.00     0.001 A 
ATOM     16  C13 UNK     1       0.822  33.569 230.998  1.00  0.00     0.000 A 
ATOM     17  C12 UNK     1       0.667  32.702 232.079  1.00  0.00     0.001 A 
ATOM     18  C9  UNK     1       0.906  33.156 233.377  1.00  0.00     0.009 A 
ENDBRANCH  12  13
ENDBRANCH   1  12
BRANCH   1  19
ATOM     19  C3  UNK     1       1.631  37.262 235.677  1.00  0.00     0.288 C 
BRANCH  19  20
ATOM     20  C7  UNK     1       1.445  37.587 237.150  1.00  0.00     0.145 C 
ATOM     21 Cl1  UNK     1       2.932  37.220 238.056  1.00  0.00    -0.129 Cl
ENDBRANCH  19  20
ENDBRANCH   1  19
TORSDOF 8
ENDMDL
MODEL 2
REMARK VINA RESULT:      -5.0      2.572      5.673
REMARK  8 active torsions:
REMARK  status: ('A' for Active; 'I' for Inactive)
REMARK    1  A    between atoms: O1_2  and  C4_7 
REMARK    2  A    between atoms: O1_2  and  C10_13 
REMARK    3  A    between atoms: N1_3  and  C1_4 
REMARK    4  A    between atoms: N1_3  and  C2_5 
REMARK    5  A    between atoms: N1_3  and  C3_6 
REMARK    6  A    between atoms: C1_4  and  C4_7 
REMARK    7  A    between atoms: C2_5  and  C6_9 
REMARK    8  A    between atoms: C3_6  and  C7_10 
ROOT
ATOM      1  N1  UNK     1      -0.995  34.601 233.717  1.00  0.00     0.100 N 
ENDROOT
BRANCH   1   2
ATOM      2  C1  UNK     1      -1.246  33.227 234.149  1.00  0.00     0.243 C 
ATOM      3  C5  UNK     1      -2.234  33.217 235.317  1.00  0.00     0.045 C 
BRANCH   2   4
ATOM      4  C4  UNK     1       0.081  32.566 234.523  1.00  0.00     0.211 C 
BRANCH   4   5
ATOM      5  O1  UNK     1       0.277  32.649 235.930  1.00  0.00    -0.349 OA
BRANCH   5   6
ATOM      6  C10 UNK     1       1.396  33.312 236.359  1.00  0.00     0.068 A 
ATOM      7  C14 UNK     1       1.379  33.973 237.582  1.00  0.00     0.037 A 
ATOM      8  C16 UNK     1       2.518  34.650 238.019  1.00  0.00     0.003 A 
ATOM      9  C18 UNK     1       3.667  34.661 237.229  1.00  0.00     0.000 A 
ATOM     10  C17 UNK     1       3.678  33.996 236.003  1.00  0.00     0.003 A 
ATOM     11  C15 UNK     1       2.539  33.319 235.567  1.00  0.00     0.037 A 
ENDBRANCH   5   6
ENDBRANCH   4   5
ENDBRANCH   2   4
ENDBRANCH   1   2
BRANCH   1  12
ATOM     12  C2  UNK     1      -1.542  35.550 234.686  1.00  0.00     0.311 C 
BRANCH  12  13
ATOM     13  C6  UNK     1      -0.462  36.378 235.331  1.00  0.00    -0.030 A 
ATOM     14  C8  UNK     1       0.800  36.422 234.756  1.00  0.00     0.009 A 
ATOM     15  C11 UNK     1       1.801  37.189 235.353  1.00  0.00     0.001 A 
ATOM     16  C13 UNK     1       1.529  37.904 236.520  1.00  0.00     0.000 A 
ATOM     17  C12 UNK     1       0.257  37.851 237.090  1.00  0.00     0.001 A 
ATOM     18  C9  UNK     1      -0.744  37.084 236.493  1.00  0.00     0.009 A 
ENDBRANCH  12  13
ENDBRANCH   1  12
BRANCH   1  19
ATOM     19  C3  UNK     1      -1.570  34.834 232.392  1.00  0.00     0.288 C 
BRANCH  19  20
ATOM     20  C7  UNK     1      -0.637  34.298 231.318  1.00  0.00     0.145 C 
ATOM     21 Cl1  UNK     1       1.052  34.698 231.711  1.00  0.00    -0.129 Cl
ENDBRANCH  19  20
ENDBRANCH   1  19
TORSDOF 8
ENDMDL
MODEL 3
REMARK VINA RESULT:      -5.0      0.810      1.648
REMARK  8 active torsions:
REMARK  status: ('A' for Active; 'I' for Inactive)
REMARK    1  A    between atoms: O1_2  and  C4_7 
REMARK    2  A    between atoms: O1_2  and  C10_13 
REMARK    3  A    between atoms: N1_3  and  C1_4 
REMARK    4  A    between atoms: N1_3  and  C2_5 
REMARK    5  A    between atoms: N1_3  and  C3_6 
REMARK    6  A    between atoms: C1_4  and  C4_7 
REMARK    7  A    between atoms: C2_5  and  C6_9 
REMARK    8  A    between atoms: C3_6  and  C7_10 
ROOT
ATOM      1  N1  UNK     1       1.016  35.549 235.746  1.00  0.00     0.100 N 
ENDROOT
BRANCH   1   2
ATOM      2  C1  UNK     1      -0.237  35.835 236.443  1.00  0.00     0.243 C 
ATOM      3  C5  UNK     1      -0.841  34.540 236.987  1.00  0.00     0.045 C 
BRANCH   2   4
ATOM      4  C4  UNK     1      -1.193  36.549 235.487  1.00  0.00     0.211 C 
BRANCH   4   5
ATOM      5  O1  UNK     1      -2.196  35.641 235.047  1.00  0.00    -0.349 OA
BRANCH   5   6
ATOM      6  C10 UNK     1      -2.317  35.463 233.695  1.00  0.00     0.068 A 
ATOM      7  C14 UNK     1      -2.031  36.516 232.833  1.00  0.00     0.037 A 
ATOM      8  C16 UNK     1      -2.155  36.335 231.454  1.00  0.00     0.003 A 
ATOM      9  C18 UNK     1      -2.564  35.101 230.948  1.00  0.00     0.000 A 
ATOM     10  C17 UNK     1      -2.849  34.049 231.818  1.00  0.00     0.003 A 
ATOM     11  C15 UNK     1      -2.725  34.231 233.195  1.00  0.00     0.037 A 
ENDBRANCH   5   6
ENDBRANCH   4   5
ENDBRANCH   2   4
ENDBRANCH   1   2
BRANCH   1  12
ATOM     12  C2  UNK     1       1.043  34.160 235.290  1.00  0.00     0.311 C 
BRANCH  12  13
ATOM     13  C6  UNK     1       1.018  34.063 233.787  1.00  0.00    -0.030 A 
ATOM     14  C8  UNK     1       0.694  32.855 233.185  1.00  0.00     0.009 A 
ATOM     15  C11 UNK     1       0.671  32.765 231.794  1.00  0.00     0.001 A 
ATOM     16  C13 UNK     1       0.974  33.884 231.017  1.00  0.00     0.000 A 
ATOM     17  C12 UNK     1       1.299  35.092 231.632  1.00  0.00     0.001 A 
ATOM     18  C9  UNK     1       1.322  35.183 233.024  1.00  0.00     0.009 A 
ENDBRANCH  12  13
ENDBRANCH   1  12
BRANCH   1  19
ATOM     19  C3  UNK     1       2.160  35.823 236.617  1.00  0.00     0.288 C 
BRANCH  19  20
ATOM     20  C7  UNK     1       2.245  37.312 236.912  1.00  0.00     0.145 C 
ATOM     21 Cl1  UNK     1       3.853  37.725 237.550  1.00  0.00    -0.129 Cl
ENDBRANCH  19  20
ENDBRANCH   1  19
TORSDOF 8
ENDMDL
MODEL 4
REMARK VINA RESULT:      -4.9      2.641      5.503
REMARK  8 active torsions:
REMARK  status: ('A' for Active; 'I' for Inactive)
REMARK    1  A    between atoms: O1_2  and  C4_7 
REMARK    2  A    between atoms: O1_2  and  C10_13 
REMARK    3  A    between atoms: N1_3  and  C1_4 
REMARK    4  A    between atoms: N1_3  and  C2_5 
REMARK    5  A    between atoms: N1_3  and  C3_6 
REMARK    6  A    between atoms: C1_4  and  C4_7 
REMARK    7  A    between atoms: C2_5  and  C6_9 
REMARK    8  A    between atoms: C3_6  and  C7_10 
ROOT
ATOM      1  N1  UNK     1      -1.443  35.605 234.724  1.00  0.00     0.100 N 
ENDROOT
BRANCH   1   2
ATOM      2  C1  UNK     1      -2.125  34.603 235.541  1.00  0.00     0.243 C 
ATOM      3  C5  UNK     1      -2.555  35.217 236.874  1.00  0.00     0.045 C 
BRANCH   2   4
ATOM      4  C4  UNK     1      -1.201  33.402 235.742  1.00  0.00     0.211 C 
BRANCH   4   5
ATOM      5  O1  UNK     1      -0.432  33.582 236.925  1.00  0.00    -0.349 OA
BRANCH   5   6
ATOM      6  C10 UNK     1       0.929  33.511 236.793  1.00  0.00     0.068 A 
ATOM      7  C14 UNK     1       1.484  33.122 235.580  1.00  0.00     0.037 A 
ATOM      8  C16 UNK     1       2.872  33.049 235.446  1.00  0.00     0.003 A 
ATOM      9  C18 UNK     1       3.693  33.365 236.527  1.00  0.00     0.000 A 
ATOM     10  C17 UNK     1       3.130  33.754 237.742  1.00  0.00     0.003 A 
ATOM     11  C15 UNK     1       1.743  33.827 237.875  1.00  0.00     0.037 A 
ENDBRANCH   5   6
ENDBRANCH   4   5
ENDBRANCH   2   4
ENDBRANCH   1   2
BRANCH   1  12
ATOM     12  C2  UNK     1      -1.216  36.826 235.496  1.00  0.00     0.311 C 
BRANCH  12  13
ATOM     13  C6  UNK     1       0.224  36.966 235.915  1.00  0.00    -0.030 A 
ATOM     14  C8  UNK     1       0.523  37.412 237.195  1.00  0.00     0.009 A 
ATOM     15  C11 UNK     1       1.856  37.542 237.583  1.00  0.00     0.001 A 
ATOM     16  C13 UNK     1       2.878  37.224 236.687  1.00  0.00     0.000 A 
ATOM     17  C12 UNK     1       2.565  36.778 235.404  1.00  0.00     0.001 A 
ATOM     18  C9  UNK     1       1.232  36.647 235.015  1.00  0.00     0.009 A 
ENDBRANCH  12  13
ENDBRANCH   1  12
BRANCH   1  19
ATOM     19  C3  UNK     1      -2.219  35.899 233.519  1.00  0.00     0.288 C 
BRANCH  19  20
ATOM     20  C7  UNK     1      -1.307  35.915 232.303  1.00  0.00     0.145 C 
ATOM     21 Cl1  UNK     1      -0.127  34.586 232.398  1.00  0.00    -0.129 Cl
ENDBRANCH  19  20
ENDBRANCH   1  19
TORSDOF 8
ENDMDL
MODEL 5
REMARK VINA RESULT:      -4.8      2.796      5.165
REMARK  8 active torsions:
REMARK  status: ('A' for Active; 'I' for Inactive)
REMARK    1  A    between atoms: O1_2  and  C4_7 
REMARK    2  A    between atoms: O1_2  and  C10_13 
REMARK    3  A    between atoms: N1_3  and  C1_4 
REMARK    4  A    between atoms: N1_3  and  C2_5 
REMARK    5  A    between atoms: N1_3  and  C3_6 
REMARK    6  A    between atoms: C1_4  and  C4_7 
REMARK    7  A    between atoms: C2_5  and  C6_9 
REMARK    8  A    between atoms: C3_6  and  C7_10 
ROOT
ATOM      1  N1  UNK     1       0.121  36.126 235.290  1.00  0.00     0.100 N 
ENDROOT
BRANCH   1   2
ATOM      2  C1  UNK     1       0.739  36.830 236.412  1.00  0.00     0.243 C 
ATOM      3  C5  UNK     1      -0.158  37.983 236.865  1.00  0.00     0.045 C 
BRANCH   2   4
ATOM      4  C4  UNK     1       2.126  37.320 235.997  1.00  0.00     0.211 C 
BRANCH   4   5
ATOM      5  O1  UNK     1       3.076  36.976 236.999  1.00  0.00    -0.349 OA
BRANCH   5   6
ATOM      6  C10 UNK     1       3.320  35.641 237.185  1.00  0.00     0.068 A 
ATOM      7  C14 UNK     1       3.204  35.089 238.456  1.00  0.00     0.037 A 
ATOM      8  C16 UNK     1       3.454  33.729 238.645  1.00  0.00     0.003 A 
ATOM      9  C18 UNK     1       3.818  32.931 237.561  1.00  0.00     0.000 A 
ATOM     10  C17 UNK     1       3.932  33.490 236.288  1.00  0.00     0.003 A 
ATOM     11  C15 UNK     1       3.682  34.850 236.100  1.00  0.00     0.037 A 
ENDBRANCH   5   6
ENDBRANCH   4   5
ENDBRANCH   2   4
ENDBRANCH   1   2
BRANCH   1  12
ATOM     12  C2  UNK     1       0.955  36.237 234.094  1.00  0.00     0.311 C 
BRANCH  12  13
ATOM     13  C6  UNK     1       0.943  34.969 233.282  1.00  0.00    -0.030 A 
ATOM     14  C8  UNK     1       0.983  33.742 233.931  1.00  0.00     0.009 A 
ATOM     15  C11 UNK     1       0.972  32.567 233.180  1.00  0.00     0.001 A 
ATOM     16  C13 UNK     1       0.923  32.630 231.787  1.00  0.00     0.000 A 
ATOM     17  C12 UNK     1       0.886  33.868 231.146  1.00  0.00     0.001 A 
ATOM     18  C9  UNK     1       0.896  35.044 231.897  1.00  0.00     0.009 A 
ENDBRANCH  12  13
ENDBRANCH   1  12
BRANCH   1  19
ATOM     19  C3  UNK     1      -1.219  36.653 235.031  1.00  0.00     0.288 C 
BRANCH  19  20
ATOM     20  C7  UNK     1      -2.213  35.510 234.904  1.00  0.00     0.145 C 
ATOM     21 Cl1  UNK     1      -2.708  35.307 233.207  1.00  0.00    -0.129 Cl
ENDBRANCH  19  20
ENDBRANCH   1  19
TORSDOF 8
ENDMDL
MODEL 6
REMARK VINA RESULT:      -4.6      3.105      5.241
REMARK  8 active torsions:
REMARK  status: ('A' for Active; 'I' for Inactive)
REMARK    1  A    between atoms: O1_2  and  C4_7 
REMARK    2  A    between atoms: O1_2  and  C10_13 
REMARK    3  A    between atoms: N1_3  and  C1_4 
REMARK    4  A    between atoms: N1_3  and  C2_5 
REMARK    5  A    between atoms: N1_3  and  C3_6 
REMARK    6  A    between atoms: C1_4  and  C4_7 
REMARK    7  A    between atoms: C2_5  and  C6_9 
REMARK    8  A    between atoms: C3_6  and  C7_10 
ROOT
ATOM      1  N1  UNK     1       0.677  35.452 235.439  1.00  0.00     0.100 N 
ENDROOT
BRANCH   1   2
ATOM      2  C1  UNK     1       1.374  35.766 236.685  1.00  0.00     0.243 C 
ATOM      3  C5  UNK     1       1.301  37.268 236.963  1.00  0.00     0.045 C 
BRANCH   2   4
ATOM      4  C4  UNK     1       2.820  35.277 236.591  1.00  0.00     0.211 C 
BRANCH   4   5
ATOM      5  O1  UNK     1       3.019  34.195 237.493  1.00  0.00    -0.349 OA
BRANCH   5   6
ATOM      6  C10 UNK     1       3.622  33.074 236.989  1.00  0.00     0.068 A 
ATOM      7  C14 UNK     1       4.511  32.354 237.780  1.00  0.00     0.037 A 
ATOM      8  C16 UNK     1       5.126  31.212 237.265  1.00  0.00     0.003 A 
ATOM      9  C18 UNK     1       4.849  30.799 235.962  1.00  0.00     0.000 A 
ATOM     10  C17 UNK     1       3.957  31.525 235.174  1.00  0.00     0.003 A 
ATOM     11  C15 UNK     1       3.341  32.666 235.689  1.00  0.00     0.037 A 
ENDBRANCH   5   6
ENDBRANCH   4   5
ENDBRANCH   2   4
ENDBRANCH   1   2
BRANCH   1  12
ATOM     12  C2  UNK     1       1.532  35.740 234.288  1.00  0.00     0.311 C 
BRANCH  12  13
ATOM     13  C6  UNK     1       1.255  34.809 233.137  1.00  0.00    -0.030 A 
ATOM     14  C8  UNK     1       1.314  35.292 231.837  1.00  0.00     0.009 A 
ATOM     15  C11 UNK     1       1.058  34.430 230.771  1.00  0.00     0.001 A 
ATOM     16  C13 UNK     1       0.745  33.093 231.016  1.00  0.00     0.000 A 
ATOM     17  C12 UNK     1       0.687  32.618 232.326  1.00  0.00     0.001 A 
ATOM     18  C9  UNK     1       0.944  33.480 233.392  1.00  0.00     0.009 A 
ENDBRANCH  12  13
ENDBRANCH   1  12
BRANCH   1  19
ATOM     19  C3  UNK     1      -0.574  36.206 235.349  1.00  0.00     0.288 C 
BRANCH  19  20
ATOM     20  C7  UNK     1      -1.759  35.273 235.540  1.00  0.00     0.145 C 
ATOM     21 Cl1  UNK     1      -2.691  35.746 236.980  1.00  0.00    -0.129 Cl
ENDBRANCH  19  20
ENDBRANCH   1  19
TORSDOF 8
ENDMDL
MODEL 7
REMARK VINA RESULT:      -4.6      1.440      2.940
REMARK  8 active torsions:
REMARK  status: ('A' for Active; 'I' for Inactive)
REMARK    1  A    between atoms: O1_2  and  C4_7 
REMARK    2  A    between atoms: O1_2  and  C10_13 
REMARK    3  A    between atoms: N1_3  and  C1_4 
REMARK    4  A    between atoms: N1_3  and  C2_5 
REMARK    5  A    between atoms: N1_3  and  C3_6 
REMARK    6  A    between atoms: C1_4  and  C4_7 
REMARK    7  A    between atoms: C2_5  and  C6_9 
REMARK    8  A    between atoms: C3_6  and  C7_10 
ROOT
ATOM      1  N1  UNK     1       0.031  36.147 236.259  1.00  0.00     0.100 N 
ENDROOT
BRANCH   1   2
ATOM      2  C1  UNK     1      -1.355  36.496 235.949  1.00  0.00     0.243 C 
ATOM      3  C5  UNK     1      -2.308  35.518 236.636  1.00  0.00     0.045 C 
BRANCH   2   4
ATOM      4  C4  UNK     1      -1.546  36.503 234.432  1.00  0.00     0.211 C 
BRANCH   4   5
ATOM      5  O1  UNK     1      -0.301  36.249 233.792  1.00  0.00    -0.349 OA
BRANCH   5   6
ATOM      6  C10 UNK     1      -0.215  35.107 233.040  1.00  0.00     0.068 A 
ATOM      7  C14 UNK     1       0.980  34.786 232.408  1.00  0.00     0.037 A 
ATOM      8  C16 UNK     1       1.066  33.623 231.641  1.00  0.00     0.003 A 
ATOM      9  C18 UNK     1      -0.045  32.790 231.513  1.00  0.00     0.000 A 
ATOM     10  C17 UNK     1      -1.241  33.118 232.150  1.00  0.00     0.003 A 
ATOM     11  C15 UNK     1      -1.327  34.280 232.916  1.00  0.00     0.037 A 
ENDBRANCH   5   6
ENDBRANCH   4   5
ENDBRANCH   2   4
ENDBRANCH   1   2
BRANCH   1  12
ATOM     12  C2  UNK     1       0.088  34.881 236.989  1.00  0.00     0.311 C 
BRANCH  12  13
ATOM     13  C6  UNK     1       0.814  33.817 236.209  1.00  0.00    -0.030 A 
ATOM     14  C8  UNK     1       0.127  32.683 235.796  1.00  0.00     0.009 A 
ATOM     15  C11 UNK     1       0.799  31.697 235.074  1.00  0.00     0.001 A 
ATOM     16  C13 UNK     1       2.152  31.854 234.772  1.00  0.00     0.000 A 
ATOM     17  C12 UNK     1       2.833  32.996 235.193  1.00  0.00     0.001 A 
ATOM     18  C9  UNK     1       2.161  33.983 235.915  1.00  0.00     0.009 A 
ENDBRANCH  12  13
ENDBRANCH   1  12
BRANCH   1  19
ATOM     19  C3  UNK     1       0.666  37.213 237.033  1.00  0.00     0.288 C 
BRANCH  19  20
ATOM     20  C7  UNK     1       1.892  37.731 236.298  1.00  0.00     0.145 C 
ATOM     21 Cl1  UNK     1       3.349  37.511 237.296  1.00  0.00    -0.129 Cl
ENDBRANCH  19  20
ENDBRANCH   1  19
TORSDOF 8
ENDMDL
MODEL 8
REMARK VINA RESULT:      -4.6      2.217      3.644
REMARK  8 active torsions:
REMARK  status: ('A' for Active; 'I' for Inactive)
REMARK    1  A    between atoms: O1_2  and  C4_7 
REMARK    2  A    between atoms: O1_2  and  C10_13 
REMARK    3  A    between atoms: N1_3  and  C1_4 
REMARK    4  A    between atoms: N1_3  and  C2_5 
REMARK    5  A    between atoms: N1_3  and  C3_6 
REMARK    6  A    between atoms: C1_4  and  C4_7 
REMARK    7  A    between atoms: C2_5  and  C6_9 
REMARK    8  A    between atoms: C3_6  and  C7_10 
ROOT
ATOM      1  N1  UNK     1       0.799  36.502 236.265  1.00  0.00     0.100 N 
ENDROOT
BRANCH   1   2
ATOM      2  C1  UNK     1       1.586  35.651 237.156  1.00  0.00     0.243 C 
ATOM      3  C5  UNK     1       3.059  35.684 236.746  1.00  0.00     0.045 C 
BRANCH   2   4
ATOM      4  C4  UNK     1       1.020  34.231 237.126  1.00  0.00     0.211 C 
BRANCH   4   5
ATOM      5  O1  UNK     1       1.873  33.392 236.356  1.00  0.00    -0.349 OA
BRANCH   5   6
ATOM      6  C10 UNK     1       1.303  32.738 235.297  1.00  0.00     0.068 A 
ATOM      7  C14 UNK     1       2.105  32.024 234.414  1.00  0.00     0.037 A 
ATOM      8  C16 UNK     1       1.523  31.358 233.334  1.00  0.00     0.003 A 
ATOM      9  C18 UNK     1       0.142  31.411 233.146  1.00  0.00     0.000 A 
ATOM     10  C17 UNK     1      -0.657  32.128 234.035  1.00  0.00     0.003 A 
ATOM     11  C15 UNK     1      -0.075  32.793 235.114  1.00  0.00     0.037 A 
ENDBRANCH   5   6
ENDBRANCH   4   5
ENDBRANCH   2   4
ENDBRANCH   1   2
BRANCH   1  12
ATOM     12  C2  UNK     1       1.540  36.780 235.035  1.00  0.00     0.311 C 
BRANCH  12  13
ATOM     13  C6  UNK     1       0.905  36.123 233.837  1.00  0.00    -0.030 A 
ATOM     14  C8  UNK     1      -0.470  36.196 233.667  1.00  0.00     0.009 A 
ATOM     15  C11 UNK     1      -1.059  35.588 232.558  1.00  0.00     0.001 A 
ATOM     16  C13 UNK     1      -0.265  34.912 231.631  1.00  0.00     0.000 A 
ATOM     17  C12 UNK     1       1.115  34.844 231.813  1.00  0.00     0.001 A 
ATOM     18  C9  UNK     1       1.704  35.452 232.922  1.00  0.00     0.009 A 
ENDBRANCH  12  13
ENDBRANCH   1  12
BRANCH   1  19
ATOM     19  C3  UNK     1       0.437  37.750 236.937  1.00  0.00     0.288 C 
BRANCH  19  20
ATOM     20  C7  UNK     1      -1.052  38.013 236.782  1.00  0.00     0.145 C 
ATOM     21 Cl1  UNK     1      -1.950  36.477 236.754  1.00  0.00    -0.129 Cl
ENDBRANCH  19  20
ENDBRANCH   1  19
TORSDOF 8
ENDMDL
MODEL 9
REMARK VINA RESULT:      -4.6      1.848      2.466
REMARK  8 active torsions:
REMARK  status: ('A' for Active; 'I' for Inactive)
REMARK    1  A    between atoms: O1_2  and  C4_7 
REMARK    2  A    between atoms: O1_2  and  C10_13 
REMARK    3  A    between atoms: N1_3  and  C1_4 
REMARK    4  A    between atoms: N1_3  and  C2_5 
REMARK    5  A    between atoms: N1_3  and  C3_6 
REMARK    6  A    between atoms: C1_4  and  C4_7 
REMARK    7  A    between atoms: C2_5  and  C6_9 
REMARK    8  A    between atoms: C3_6  and  C7_10 
ROOT
ATOM      1  N1  UNK     1       1.621  35.398 236.569  1.00  0.00     0.100 N 
ENDROOT
BRANCH   1   2
ATOM      2  C1  UNK     1       1.597  34.300 237.534  1.00  0.00     0.243 C 
ATOM      3  C5  UNK     1       2.739  33.324 237.246  1.00  0.00     0.045 C 
BRANCH   2   4
ATOM      4  C4  UNK     1       0.234  33.611 237.479  1.00  0.00     0.211 C 
BRANCH   4   5
ATOM      5  O1  UNK     1      -0.767  34.556 237.119  1.00  0.00    -0.349 OA
BRANCH   5   6
ATOM      6  C10 UNK     1      -1.603  34.208 236.092  1.00  0.00     0.068 A 
ATOM      7  C14 UNK     1      -1.707  32.876 235.709  1.00  0.00     0.037 A 
ATOM      8  C16 UNK     1      -2.559  32.522 234.662  1.00  0.00     0.003 A 
ATOM      9  C18 UNK     1      -3.300  33.503 234.005  1.00  0.00     0.000 A 
ATOM     10  C17 UNK     1      -3.191  34.838 234.393  1.00  0.00     0.003 A 
ATOM     11  C15 UNK     1      -2.340  35.191 235.441  1.00  0.00     0.037 A 
ENDBRANCH   5   6
ENDBRANCH   4   5
ENDBRANCH   2   4
ENDBRANCH   1   2
BRANCH   1  12
ATOM     12  C2  UNK     1       2.376  35.015 235.376  1.00  0.00     0.311 C 
BRANCH  12  13
ATOM     13  C6  UNK     1       1.473  34.764 234.197  1.00  0.00    -0.030 A 
ATOM     14  C8  UNK     1       0.813  35.831 233.603  1.00  0.00     0.009 A 
ATOM     15  C11 UNK     1      -0.024  35.599 232.511  1.00  0.00     0.001 A 
ATOM     16  C13 UNK     1      -0.193  34.302 232.025  1.00  0.00     0.000 A 
ATOM     17  C12 UNK     1       0.474  33.238 232.631  1.00  0.00     0.001 A 
ATOM     18  C9  UNK     1       1.311  33.470 233.723  1.00  0.00     0.009 A 
ENDBRANCH  12  13
ENDBRANCH   1  12
BRANCH   1  19
ATOM     19  C3  UNK     1       2.196  36.599 237.174  1.00  0.00     0.288 C 
BRANCH  19  20
ATOM     20  C7  UNK     1       1.595  37.842 236.537  1.00  0.00     0.145 C 
ATOM     21 Cl1  UNK     1      -0.128  37.980 236.957  1.00  0.00    -0.129 Cl
ENDBRANCH  19  20
ENDBRANCH   1  19
TORSDOF 8
ENDMDL
