MODEL 1
REMARK VINA RESULT:      -5.1      0.000      0.000
REMARK  8 active torsions:
REMARK  status: ('A' for Active; 'I' for Inactive)
REMARK    1  A    between atoms: O1_1  and  C4_8 
REMARK    2  A    between atoms: O1_1  and  C7_11 
REMARK    3  A    between atoms: N1_3  and  C1_5 
REMARK    4  A    between atoms: N1_3  and  C2_6 
REMARK    5  A    between atoms: N1_3  and  C3_7 
REMARK    6  A    between atoms: N2_4  and  C11_15 
REMARK    7  A    between atoms: C1_5  and  C4_8 
REMARK    8  A    between atoms: C7_11  and  C8_12 
ROOT
ATOM      1  O2  UNK     1       1.967  37.074 234.730  1.00  0.00    -0.259 OA
ATOM      2  C7  UNK     1       1.849  37.423 235.894  1.00  0.00     0.293 C 
ENDROOT
BRANCH   2   3
ATOM      3  O1  UNK     1       0.963  38.341 236.368  1.00  0.00    -0.316 OA
BRANCH   3   4
ATOM      4  C4  UNK     1      -0.104  37.830 237.157  1.00  0.00     0.209 C 
BRANCH   4   5
ATOM      5  C1  UNK     1      -1.205  37.341 236.231  1.00  0.00     0.299 C 
BRANCH   5   6
ATOM      6  N1  UNK     1      -1.271  35.879 236.233  1.00  0.00     0.089 N 
BRANCH   6   7
ATOM      7  C2  UNK     1      -1.135  35.360 234.873  1.00  0.00     0.268 C 
ATOM      8  C5  UNK     1      -1.563  36.394 233.845  1.00  0.00     0.037 C 
ENDBRANCH   6   7
BRANCH   6   9
ATOM      9  C3  UNK     1      -2.526  35.425 236.831  1.00  0.00     0.268 C 
ATOM     10  C6  UNK     1      -2.316  34.169 237.659  1.00  0.00     0.037 C 
ENDBRANCH   6   9
ENDBRANCH   5   6
ENDBRANCH   4   5
ENDBRANCH   3   4
ENDBRANCH   2   3
BRANCH   2  11
ATOM     11  C8  UNK     1       2.681  36.876 236.996  1.00  0.00     0.039 A 
ATOM     12  C9  UNK     1       2.417  35.605 237.464  1.00  0.00     0.020 A 
ATOM     13  C12 UNK     1       3.198  35.091 238.499  1.00  0.00     0.030 A 
ATOM     14  C11 UNK     1       4.228  35.859 239.042  1.00  0.00     0.025 A 
ATOM     15  C13 UNK     1       4.476  37.141 238.552  1.00  0.00     0.030 A 
ATOM     16  C10 UNK     1       3.694  37.656 237.518  1.00  0.00     0.020 A 
BRANCH  14  17
ATOM     17  N2  UNK     1       5.020  35.338 240.086  1.00  0.00    -0.399 N 
ATOM     18  H19 UNK     1       5.800  34.731 239.875  1.00  0.00     0.156 HD
ATOM     19  H20 UNK     1       4.812  35.577 241.047  1.00  0.00     0.156 HD
ENDBRANCH  14  17
ENDBRANCH   2  11
TORSDOF 8
ENDMDL
MODEL 2
REMARK VINA RESULT:      -5.1      2.304      3.379
REMARK  8 active torsions:
REMARK  status: ('A' for Active; 'I' for Inactive)
REMARK    1  A    between atoms: O1_1  and  C4_8 
REMARK    2  A    between atoms: O1_1  and  C7_11 
REMARK    3  A    between atoms: N1_3  and  C1_5 
REMARK    4  A    between atoms: N1_3  and  C2_6 
REMARK    5  A    between atoms: N1_3  and  C3_7 
REMARK    6  A    between atoms: N2_4  and  C11_15 
REMARK    7  A    between atoms: C1_5  and  C4_8 
REMARK    8  A    between atoms: C7_11  and  C8_12 
ROOT
ATOM      1  O2  UNK     1      -0.144  33.560 237.035  1.00  0.00    -0.259 OA
ATOM      2  C7  UNK     1      -0.061  34.777 236.972  1.00  0.00     0.293 C 
ENDROOT
BRANCH   2   3
ATOM      3  O1  UNK     1      -1.099  35.641 236.799  1.00  0.00    -0.316 OA
BRANCH   3   4
ATOM      4  C4  UNK     1      -1.865  35.467 235.614  1.00  0.00     0.209 C 
BRANCH   4   5
ATOM      5  C1  UNK     1      -1.482  36.554 234.621  1.00  0.00     0.299 C 
BRANCH   5   6
ATOM      6  N1  UNK     1      -0.904  35.968 233.411  1.00  0.00     0.089 N 
BRANCH   6   7
ATOM      7  C2  UNK     1       0.556  36.012 233.470  1.00  0.00     0.268 C 
ATOM      8  C5  UNK     1       1.151  34.615 233.406  1.00  0.00     0.037 C 
ENDBRANCH   6   7
BRANCH   6   9
ATOM      9  C3  UNK     1      -1.390  36.668 232.223  1.00  0.00     0.268 C 
ATOM     10  C6  UNK     1      -2.779  36.193 231.835  1.00  0.00     0.037 C 
ENDBRANCH   6   9
ENDBRANCH   5   6
ENDBRANCH   4   5
ENDBRANCH   3   4
ENDBRANCH   2   3
BRANCH   2  11
ATOM     11  C8  UNK     1       1.223  35.513 237.082  1.00  0.00     0.039 A 
ATOM     12  C9  UNK     1       1.200  36.891 237.139  1.00  0.00     0.020 A 
ATOM     13  C12 UNK     1       2.407  37.583 237.243  1.00  0.00     0.030 A 
ATOM     14  C11 UNK     1       3.610  36.881 237.289  1.00  0.00     0.025 A 
ATOM     15  C13 UNK     1       3.609  35.487 237.231  1.00  0.00     0.030 A 
ATOM     16  C10 UNK     1       2.402  34.796 237.126  1.00  0.00     0.020 A 
BRANCH  14  17
ATOM     17  N2  UNK     1       4.831  37.580 237.397  1.00  0.00    -0.399 N 
ATOM     18  H19 UNK     1       5.016  38.153 238.209  1.00  0.00     0.156 HD
ATOM     19  H20 UNK     1       5.524  37.504 236.665  1.00  0.00     0.156 HD
ENDBRANCH  14  17
ENDBRANCH   2  11
TORSDOF 8
ENDMDL
MODEL 3
REMARK VINA RESULT:      -5.0      2.485      4.880
REMARK  8 active torsions:
REMARK  status: ('A' for Active; 'I' for Inactive)
REMARK    1  A    between atoms: O1_1  and  C4_8 
REMARK    2  A    between atoms: O1_1  and  C7_11 
REMARK    3  A    between atoms: N1_3  and  C1_5 
REMARK    4  A    between atoms: N1_3  and  C2_6 
REMARK    5  A    between atoms: N1_3  and  C3_7 
REMARK    6  A    between atoms: N2_4  and  C11_15 
REMARK    7  A    between atoms: C1_5  and  C4_8 
REMARK    8  A    between atoms: C7_11  and  C8_12 
ROOT
ATOM      1  O2  UNK     1       4.851  37.237 237.354  1.00  0.00    -0.259 OA
ATOM      2  C7  UNK     1       3.796  36.748 237.726  1.00  0.00     0.293 C 
ENDROOT
BRANCH   2   3
ATOM      3  O1  UNK     1       3.592  36.083 238.896  1.00  0.00    -0.316 OA
BRANCH   3   4
ATOM      4  C4  UNK     1       4.032  34.731 238.930  1.00  0.00     0.209 C 
BRANCH   4   5
ATOM      5  C1  UNK     1       2.814  33.821 238.959  1.00  0.00     0.299 C 
BRANCH   5   6
ATOM      6  N1  UNK     1       2.941  32.756 237.965  1.00  0.00     0.089 N 
BRANCH   6   7
ATOM      7  C2  UNK     1       3.968  33.096 236.981  1.00  0.00     0.268 C 
ATOM      8  C5  UNK     1       3.650  32.492 235.624  1.00  0.00     0.037 C 
ENDBRANCH   6   7
BRANCH   6   9
ATOM      9  C3  UNK     1       1.659  32.517 237.304  1.00  0.00     0.268 C 
ATOM     10  C6  UNK     1       0.677  33.641 237.589  1.00  0.00     0.037 C 
ENDBRANCH   6   9
ENDBRANCH   5   6
ENDBRANCH   4   5
ENDBRANCH   3   4
ENDBRANCH   2   3
BRANCH   2  11
ATOM     11  C8  UNK     1       2.543  36.814 236.932  1.00  0.00     0.039 A 
ATOM     12  C9  UNK     1       1.461  37.499 237.448  1.00  0.00     0.020 A 
ATOM     13  C12 UNK     1       0.284  37.562 236.702  1.00  0.00     0.030 A 
ATOM     14  C11 UNK     1       0.214  36.939 235.457  1.00  0.00     0.025 A 
ATOM     15  C13 UNK     1       1.321  36.253 234.956  1.00  0.00     0.030 A 
ATOM     16  C10 UNK     1       2.498  36.190 235.702  1.00  0.00     0.020 A 
BRANCH  14  17
ATOM     17  N2  UNK     1      -0.975  37.004 234.701  1.00  0.00    -0.399 N 
ATOM     18  H19 UNK     1      -1.778  37.501 235.063  1.00  0.00     0.156 HD
ATOM     19  H20 UNK     1      -1.024  36.560 233.794  1.00  0.00     0.156 HD
ENDBRANCH  14  17
ENDBRANCH   2  11
TORSDOF 8
ENDMDL
MODEL 4
REMARK VINA RESULT:      -5.0      1.027      1.897
REMARK  8 active torsions:
REMARK  status: ('A' for Active; 'I' for Inactive)
REMARK    1  A    between atoms: O1_1  and  C4_8 
REMARK    2  A    between atoms: O1_1  and  C7_11 
REMARK    3  A    between atoms: N1_3  and  C1_5 
REMARK    4  A    between atoms: N1_3  and  C2_6 
REMARK    5  A    between atoms: N1_3  and  C3_7 
REMARK    6  A    between atoms: N2_4  and  C11_15 
REMARK    7  A    between atoms: C1_5  and  C4_8 
REMARK    8  A    between atoms: C7_11  and  C8_12 
ROOT
ATOM      1  O2  UNK     1       1.924  37.644 235.274  1.00  0.00    -0.259 OA
ATOM      2  C7  UNK     1       1.704  37.523 236.469  1.00  0.00     0.293 C 
ENDROOT
BRANCH   2   3
ATOM      3  O1  UNK     1       0.584  37.940 237.122  1.00  0.00    -0.316 OA
BRANCH   3   4
ATOM      4  C4  UNK     1      -0.648  37.734 236.442  1.00  0.00     0.209 C 
BRANCH   4   5
ATOM      5  C1  UNK     1      -0.994  36.255 236.497  1.00  0.00     0.299 C 
BRANCH   5   6
ATOM      6  N1  UNK     1      -0.839  35.639 235.179  1.00  0.00     0.089 N 
BRANCH   6   7
ATOM      7  C2  UNK     1      -2.128  35.569 234.492  1.00  0.00     0.268 C 
ATOM      8  C5  UNK     1      -2.055  36.216 233.119  1.00  0.00     0.037 C 
ENDBRANCH   6   7
BRANCH   6   9
ATOM      9  C3  UNK     1      -0.253  34.305 235.304  1.00  0.00     0.268 C 
ATOM     10  C6  UNK     1       1.090  34.226 234.598  1.00  0.00     0.037 C 
ENDBRANCH   6   9
ENDBRANCH   5   6
ENDBRANCH   4   5
ENDBRANCH   3   4
ENDBRANCH   2   3
BRANCH   2  11
ATOM     11  C8  UNK     1       2.655  36.883 237.412  1.00  0.00     0.039 A 
ATOM     12  C9  UNK     1       3.756  37.598 237.838  1.00  0.00     0.020 A 
ATOM     13  C12 UNK     1       4.649  36.997 238.725  1.00  0.00     0.030 A 
ATOM     14  C11 UNK     1       4.421  35.694 239.167  1.00  0.00     0.025 A 
ATOM     15  C13 UNK     1       3.301  34.992 238.724  1.00  0.00     0.030 A 
ATOM     16  C10 UNK     1       2.408  35.593 237.836  1.00  0.00     0.020 A 
BRANCH  14  17
ATOM     17  N2  UNK     1       5.322  35.087 240.066  1.00  0.00    -0.399 N 
ATOM     18  H19 UNK     1       6.029  35.644 240.528  1.00  0.00     0.156 HD
ATOM     19  H20 UNK     1       5.259  34.095 240.254  1.00  0.00     0.156 HD
ENDBRANCH  14  17
ENDBRANCH   2  11
TORSDOF 8
ENDMDL
MODEL 5
REMARK VINA RESULT:      -4.9      2.973      5.610
REMARK  8 active torsions:
REMARK  status: ('A' for Active; 'I' for Inactive)
REMARK    1  A    between atoms: O1_1  and  C4_8 
REMARK    2  A    between atoms: O1_1  and  C7_11 
REMARK    3  A    between atoms: N1_3  and  C1_5 
REMARK    4  A    between atoms: N1_3  and  C2_6 
REMARK    5  A    between atoms: N1_3  and  C3_7 
REMARK    6  A    between atoms: N2_4  and  C11_15 
REMARK    7  A    between atoms: C1_5  and  C4_8 
REMARK    8  A    between atoms: C7_11  and  C8_12 
ROOT
ATOM      1  O2  UNK     1       5.430  37.043 238.391  1.00  0.00    -0.259 OA
ATOM      2  C7  UNK     1       4.359  36.456 238.387  1.00  0.00     0.293 C 
ENDROOT
BRANCH   2   3
ATOM      3  O1  UNK     1       3.881  35.657 239.380  1.00  0.00    -0.316 OA
BRANCH   3   4
ATOM      4  C4  UNK     1       4.745  34.614 239.813  1.00  0.00     0.209 C 
BRANCH   4   5
ATOM      5  C1  UNK     1       4.019  33.286 239.667  1.00  0.00     0.299 C 
BRANCH   5   6
ATOM      6  N1  UNK     1       4.196  32.746 238.319  1.00  0.00     0.089 N 
BRANCH   6   7
ATOM      7  C2  UNK     1       2.933  32.206 237.815  1.00  0.00     0.268 C 
ATOM      8  C5  UNK     1       1.752  33.033 238.294  1.00  0.00     0.037 C 
ENDBRANCH   6   7
BRANCH   6   9
ATOM      9  C3  UNK     1       5.231  31.714 238.314  1.00  0.00     0.268 C 
ATOM     10  C6  UNK     1       5.216  30.926 237.015  1.00  0.00     0.037 C 
ENDBRANCH   6   9
ENDBRANCH   5   6
ENDBRANCH   4   5
ENDBRANCH   3   4
ENDBRANCH   2   3
BRANCH   2  11
ATOM     11  C8  UNK     1       3.392  36.534 237.263  1.00  0.00     0.039 A 
ATOM     12  C9  UNK     1       3.457  35.588 236.260  1.00  0.00     0.020 A 
ATOM     13  C12 UNK     1       2.548  35.660 235.205  1.00  0.00     0.030 A 
ATOM     14  C11 UNK     1       1.592  36.675 235.176  1.00  0.00     0.025 A 
ATOM     15  C13 UNK     1       1.545  37.619 236.203  1.00  0.00     0.030 A 
ATOM     16  C10 UNK     1       2.455  37.548 237.257  1.00  0.00     0.020 A 
BRANCH  14  17
ATOM     17  N2  UNK     1       0.671  36.746 234.111  1.00  0.00    -0.399 N 
ATOM     18  H19 UNK     1       0.869  36.275 233.238  1.00  0.00     0.156 HD
ATOM     19  H20 UNK     1      -0.192  37.263 234.221  1.00  0.00     0.156 HD
ENDBRANCH  14  17
ENDBRANCH   2  11
TORSDOF 8
ENDMDL
MODEL 6
REMARK VINA RESULT:      -4.8      2.600      3.358
REMARK  8 active torsions:
REMARK  status: ('A' for Active; 'I' for Inactive)
REMARK    1  A    between atoms: O1_1  and  C4_8 
REMARK    2  A    between atoms: O1_1  and  C7_11 
REMARK    3  A    between atoms: N1_3  and  C1_5 
REMARK    4  A    between atoms: N1_3  and  C2_6 
REMARK    5  A    between atoms: N1_3  and  C3_7 
REMARK    6  A    between atoms: N2_4  and  C11_15 
REMARK    7  A    between atoms: C1_5  and  C4_8 
REMARK    8  A    between atoms: C7_11  and  C8_12 
ROOT
ATOM      1  O2  UNK     1      -0.451  34.722 237.156  1.00  0.00    -0.259 OA
ATOM      2  C7  UNK     1       0.153  35.678 236.694  1.00  0.00     0.293 C 
ENDROOT
BRANCH   2   3
ATOM      3  O1  UNK     1      -0.311  36.531 235.740  1.00  0.00    -0.316 OA
BRANCH   3   4
ATOM      4  C4  UNK     1      -0.499  35.977 234.444  1.00  0.00     0.209 C 
BRANCH   4   5
ATOM      5  C1  UNK     1       0.794  36.125 233.657  1.00  0.00     0.299 C 
BRANCH   5   6
ATOM      6  N1  UNK     1       1.073  34.911 232.889  1.00  0.00     0.089 N 
BRANCH   6   7
ATOM      7  C2  UNK     1       0.408  34.967 231.588  1.00  0.00     0.268 C 
ATOM      8  C5  UNK     1       1.414  34.880 230.452  1.00  0.00     0.037 C 
ENDBRANCH   6   7
BRANCH   6   9
ATOM      9  C3  UNK     1       0.644  33.727 233.632  1.00  0.00     0.268 C 
ATOM     10  C6  UNK     1       1.785  33.152 234.454  1.00  0.00     0.037 C 
ENDBRANCH   6   9
ENDBRANCH   5   6
ENDBRANCH   4   5
ENDBRANCH   3   4
ENDBRANCH   2   3
BRANCH   2  11
ATOM     11  C8  UNK     1       1.523  36.060 237.121  1.00  0.00     0.039 A 
ATOM     12  C9  UNK     1       1.919  37.375 236.992  1.00  0.00     0.020 A 
ATOM     13  C12 UNK     1       3.205  37.735 237.395  1.00  0.00     0.030 A 
ATOM     14  C11 UNK     1       4.067  36.771 237.917  1.00  0.00     0.025 A 
ATOM     15  C13 UNK     1       3.643  35.448 238.038  1.00  0.00     0.030 A 
ATOM     16  C10 UNK     1       2.357  35.088 237.635  1.00  0.00     0.020 A 
BRANCH  14  17
ATOM     17  N2  UNK     1       5.366  37.135 238.326  1.00  0.00    -0.399 N 
ATOM     18  H19 UNK     1       5.519  37.507 239.254  1.00  0.00     0.156 HD
ATOM     19  H20 UNK     1       6.148  37.018 237.695  1.00  0.00     0.156 HD
ENDBRANCH  14  17
ENDBRANCH   2  11
TORSDOF 8
ENDMDL
MODEL 7
REMARK VINA RESULT:      -4.8      2.697      3.795
REMARK  8 active torsions:
REMARK  status: ('A' for Active; 'I' for Inactive)
REMARK    1  A    between atoms: O1_1  and  C4_8 
REMARK    2  A    between atoms: O1_1  and  C7_11 
REMARK    3  A    between atoms: N1_3  and  C1_5 
REMARK    4  A    between atoms: N1_3  and  C2_6 
REMARK    5  A    between atoms: N1_3  and  C3_7 
REMARK    6  A    between atoms: N2_4  and  C11_15 
REMARK    7  A    between atoms: C1_5  and  C4_8 
REMARK    8  A    between atoms: C7_11  and  C8_12 
ROOT
ATOM      1  O2  UNK     1       2.890  31.566 237.417  1.00  0.00    -0.259 OA
ATOM      2  C7  UNK     1       2.283  32.626 237.399  1.00  0.00     0.293 C 
ENDROOT
BRANCH   2   3
ATOM      3  O1  UNK     1       0.929  32.771 237.366  1.00  0.00    -0.316 OA
BRANCH   3   4
ATOM      4  C4  UNK     1       0.379  33.210 236.130  1.00  0.00     0.209 C 
BRANCH   4   5
ATOM      5  C1  UNK     1      -0.488  34.433 236.389  1.00  0.00     0.299 C 
BRANCH   5   6
ATOM      6  N1  UNK     1       0.181  35.648 235.923  1.00  0.00     0.089 N 
BRANCH   6   7
ATOM      7  C2  UNK     1      -0.407  36.828 236.555  1.00  0.00     0.268 C 
ATOM      8  C5  UNK     1       0.669  37.763 237.082  1.00  0.00     0.037 C 
ENDBRANCH   6   7
BRANCH   6   9
ATOM      9  C3  UNK     1       0.097  35.752 234.467  1.00  0.00     0.268 C 
ATOM     10  C6  UNK     1       1.454  36.060 233.859  1.00  0.00     0.037 C 
ENDBRANCH   6   9
ENDBRANCH   5   6
ENDBRANCH   4   5
ENDBRANCH   3   4
ENDBRANCH   2   3
BRANCH   2  11
ATOM     11  C8  UNK     1       2.954  33.950 237.415  1.00  0.00     0.039 A 
ATOM     12  C9  UNK     1       3.619  34.374 236.282  1.00  0.00     0.020 A 
ATOM     13  C12 UNK     1       4.248  35.619 236.296  1.00  0.00     0.030 A 
ATOM     14  C11 UNK     1       4.198  36.413 237.441  1.00  0.00     0.025 A 
ATOM     15  C13 UNK     1       3.518  35.963 238.573  1.00  0.00     0.030 A 
ATOM     16  C10 UNK     1       2.890  34.718 238.560  1.00  0.00     0.020 A 
BRANCH  14  17
ATOM     17  N2  UNK     1       4.832  37.672 237.455  1.00  0.00    -0.399 N 
ATOM     18  H19 UNK     1       5.812  37.743 237.696  1.00  0.00     0.156 HD
ATOM     19  H20 UNK     1       4.310  38.505 237.217  1.00  0.00     0.156 HD
ENDBRANCH  14  17
ENDBRANCH   2  11
TORSDOF 8
ENDMDL
MODEL 8
REMARK VINA RESULT:      -4.8      2.285      3.247
REMARK  8 active torsions:
REMARK  status: ('A' for Active; 'I' for Inactive)
REMARK    1  A    between atoms: O1_1  and  C4_8 
REMARK    2  A    between atoms: O1_1  and  C7_11 
REMARK    3  A    between atoms: N1_3  and  C1_5 
REMARK    4  A    between atoms: N1_3  and  C2_6 
REMARK    5  A    between atoms: N1_3  and  C3_7 
REMARK    6  A    between atoms: N2_4  and  C11_15 
REMARK    7  A    between atoms: C1_5  and  C4_8 
REMARK    8  A    between atoms: C7_11  and  C8_12 
ROOT
ATOM      1  O2  UNK     1      -0.414  33.769 237.361  1.00  0.00    -0.259 OA
ATOM      2  C7  UNK     1      -0.233  34.888 236.907  1.00  0.00     0.293 C 
ENDROOT
BRANCH   2   3
ATOM      3  O1  UNK     1      -1.144  35.628 236.217  1.00  0.00    -0.316 OA
BRANCH   3   4
ATOM      4  C4  UNK     1      -2.258  34.917 235.693  1.00  0.00     0.209 C 
BRANCH   4   5
ATOM      5  C1  UNK     1      -2.459  35.326 234.242  1.00  0.00     0.299 C 
BRANCH   5   6
ATOM      6  N1  UNK     1      -1.189  35.733 233.639  1.00  0.00     0.089 N 
BRANCH   6   7
ATOM      7  C2  UNK     1      -1.418  36.720 232.585  1.00  0.00     0.268 C 
ATOM      8  C5  UNK     1      -2.615  36.342 231.729  1.00  0.00     0.037 C 
ENDBRANCH   6   7
BRANCH   6   9
ATOM      9  C3  UNK     1      -0.482  34.570 233.106  1.00  0.00     0.268 C 
ATOM     10  C6  UNK     1       1.009  34.658 233.386  1.00  0.00     0.037 C 
ENDBRANCH   6   9
ENDBRANCH   5   6
ENDBRANCH   4   5
ENDBRANCH   3   4
ENDBRANCH   2   3
BRANCH   2  11
ATOM     11  C8  UNK     1       1.047  35.627 237.048  1.00  0.00     0.039 A 
ATOM     12  C9  UNK     1       2.155  34.957 237.528  1.00  0.00     0.020 A 
ATOM     13  C12 UNK     1       3.358  35.651 237.659  1.00  0.00     0.030 A 
ATOM     14  C11 UNK     1       3.428  36.998 237.307  1.00  0.00     0.025 A 
ATOM     15  C13 UNK     1       2.295  37.653 236.823  1.00  0.00     0.030 A 
ATOM     16  C10 UNK     1       1.091  36.959 236.692  1.00  0.00     0.020 A 
BRANCH  14  17
ATOM     17  N2  UNK     1       4.644  37.699 237.437  1.00  0.00    -0.399 N 
ATOM     18  H19 UNK     1       5.327  37.405 238.123  1.00  0.00     0.156 HD
ATOM     19  H20 UNK     1       4.838  38.493 236.840  1.00  0.00     0.156 HD
ENDBRANCH  14  17
ENDBRANCH   2  11
TORSDOF 8
ENDMDL
MODEL 9
REMARK VINA RESULT:      -4.7      1.910      2.880
REMARK  8 active torsions:
REMARK  status: ('A' for Active; 'I' for Inactive)
REMARK    1  A    between atoms: O1_1  and  C4_8 
REMARK    2  A    between atoms: O1_1  and  C7_11 
REMARK    3  A    between atoms: N1_3  and  C1_5 
REMARK    4  A    between atoms: N1_3  and  C2_6 
REMARK    5  A    between atoms: N1_3  and  C3_7 
REMARK    6  A    between atoms: N2_4  and  C11_15 
REMARK    7  A    between atoms: C1_5  and  C4_8 
REMARK    8  A    between atoms: C7_11  and  C8_12 
ROOT
ATOM      1  O2  UNK     1       1.377  33.766 234.362  1.00  0.00    -0.259 OA
ATOM      2  C7  UNK     1       1.414  34.984 234.439  1.00  0.00     0.293 C 
ENDROOT
BRANCH   2   3
ATOM      3  O1  UNK     1       0.736  35.856 233.642  1.00  0.00    -0.316 OA
BRANCH   3   4
ATOM      4  C4  UNK     1      -0.616  35.522 233.359  1.00  0.00     0.209 C 
BRANCH   4   5
ATOM      5  C1  UNK     1      -1.524  36.435 234.168  1.00  0.00     0.299 C 
BRANCH   5   6
ATOM      6  N1  UNK     1      -2.275  35.667 235.162  1.00  0.00     0.089 N 
BRANCH   6   7
ATOM      7  C2  UNK     1      -1.726  35.889 236.499  1.00  0.00     0.268 C 
ATOM      8  C5  UNK     1      -1.109  34.617 237.057  1.00  0.00     0.037 C 
ENDBRANCH   6   7
BRANCH   6   9
ATOM      9  C3  UNK     1      -2.254  34.243 234.830  1.00  0.00     0.268 C 
ATOM     10  C6  UNK     1      -3.651  33.728 234.529  1.00  0.00     0.037 C 
ENDBRANCH   6   9
ENDBRANCH   5   6
ENDBRANCH   4   5
ENDBRANCH   3   4
ENDBRANCH   2   3
BRANCH   2  11
ATOM     11  C8  UNK     1       2.226  35.714 235.445  1.00  0.00     0.039 A 
ATOM     12  C9  UNK     1       1.787  36.944 235.891  1.00  0.00     0.020 A 
ATOM     13  C12 UNK     1       2.549  37.630 236.838  1.00  0.00     0.030 A 
ATOM     14  C11 UNK     1       3.732  37.069 237.318  1.00  0.00     0.025 A 
ATOM     15  C13 UNK     1       4.154  35.823 236.852  1.00  0.00     0.030 A 
ATOM     16  C10 UNK     1       3.393  35.139 235.905  1.00  0.00     0.020 A 
BRANCH  14  17
ATOM     17  N2  UNK     1       4.502  37.760 238.276  1.00  0.00    -0.399 N 
ATOM     18  H19 UNK     1       4.198  37.795 239.240  1.00  0.00     0.156 HD
ATOM     19  H20 UNK     1       5.362  38.217 238.002  1.00  0.00     0.156 HD
ENDBRANCH  14  17
ENDBRANCH   2  11
TORSDOF 8
ENDMDL
