MODEL 1
REMARK VINA RESULT:      -6.3      0.000      0.000
REMARK  3 active torsions:
REMARK  status: ('A' for Active; 'I' for Inactive)
REMARK    1  A    between atoms: N1_2  and  C2_5 
REMARK    2  A    between atoms: N2_3  and  C1_4 
REMARK    3  A    between atoms: C1_4  and  C2_5 
ROOT
ATOM      1  S1  UNK     1      -0.332  33.504 236.257  1.00  0.00    -0.086 SA
ATOM      2  N1  UNK     1       2.461  34.757 236.796  1.00  0.00    -0.343 N 
ATOM      3  C3  UNK     1       2.469  33.487 236.167  1.00  0.00     0.052 A 
ATOM      4  C4  UNK     1       1.371  35.664 236.790  1.00  0.00     0.052 A 
ATOM      5  C6  UNK     1       1.265  32.828 235.849  1.00  0.00     0.032 A 
ATOM      6  C7  UNK     1       0.059  35.220 236.533  1.00  0.00     0.032 A 
ATOM      7  C10 UNK     1       3.670  32.842 235.798  1.00  0.00     0.031 A 
ATOM      8  C11 UNK     1       1.549  37.049 237.002  1.00  0.00     0.031 A 
ATOM      9  C12 UNK     1       1.278  31.571 235.218  1.00  0.00     0.021 A 
ATOM     10  C13 UNK     1      -1.018  36.125 236.519  1.00  0.00     0.021 A 
ATOM     11  C14 UNK     1       3.676  31.595 235.167  1.00  0.00     0.002 A 
ATOM     12  C15 UNK     1       0.476  37.944 236.982  1.00  0.00     0.002 A 
ATOM     13  C16 UNK     1       2.479  30.957 234.880  1.00  0.00     0.002 A 
ATOM     14  C17 UNK     1      -0.810  37.482 236.744  1.00  0.00     0.002 A 
ENDROOT
BRANCH   2  15
ATOM     15  C2  UNK     1       3.702  35.198 237.448  1.00  0.00     0.164 C 
BRANCH  15  16
ATOM     16  C1  UNK     1       3.632  34.956 238.959  1.00  0.00     0.236 C 
ATOM     17  C5  UNK     1       4.308  33.648 239.367  1.00  0.00     0.044 C 
BRANCH  16  18
ATOM     18  N2  UNK     1       4.296  36.063 239.649  1.00  0.00     0.085 N 
ATOM     19  C8  UNK     1       4.911  36.971 238.682  1.00  0.00     0.310 C 
ATOM     20  C9  UNK     1       5.298  35.554 240.584  1.00  0.00     0.310 C 
ENDBRANCH  16  18
ENDBRANCH  15  16
ENDBRANCH   2  15
TORSDOF 3
ENDMDL
MODEL 2
REMARK VINA RESULT:      -6.1      3.032      5.269
REMARK  3 active torsions:
REMARK  status: ('A' for Active; 'I' for Inactive)
REMARK    1  A    between atoms: N1_2  and  C2_5 
REMARK    2  A    between atoms: N2_3  and  C1_4 
REMARK    3  A    between atoms: C1_4  and  C2_5 
ROOT
ATOM      1  S1  UNK     1       3.223  35.369 236.359  1.00  0.00    -0.086 SA
ATOM      2  N1  UNK     1       0.760  34.573 234.637  1.00  0.00    -0.343 N 
ATOM      3  C3  UNK     1       1.735  33.560 234.821  1.00  0.00     0.052 A 
ATOM      4  C4  UNK     1       0.581  35.696 235.484  1.00  0.00     0.052 A 
ATOM      5  C6  UNK     1       2.885  33.793 235.602  1.00  0.00     0.032 A 
ATOM      6  C7  UNK     1       1.616  36.140 236.331  1.00  0.00     0.032 A 
ATOM      7  C10 UNK     1       1.586  32.269 234.268  1.00  0.00     0.031 A 
ATOM      8  C11 UNK     1      -0.643  36.397 235.548  1.00  0.00     0.031 A 
ATOM      9  C12 UNK     1       3.845  32.782 235.788  1.00  0.00     0.021 A 
ATOM     10  C13 UNK     1       1.431  37.249 237.175  1.00  0.00     0.021 A 
ATOM     11  C14 UNK     1       2.541  31.267 234.460  1.00  0.00     0.002 A 
ATOM     12  C15 UNK     1      -0.824  37.495 236.393  1.00  0.00     0.002 A 
ATOM     13  C16 UNK     1       3.674  31.525 235.218  1.00  0.00     0.002 A 
ATOM     14  C17 UNK     1       0.216  37.925 237.205  1.00  0.00     0.002 A 
ENDROOT
BRANCH   2  15
ATOM     15  C2  UNK     1      -0.182  34.411 233.522  1.00  0.00     0.164 C 
BRANCH  15  16
ATOM     16  C1  UNK     1       0.193  35.340 232.362  1.00  0.00     0.236 C 
ATOM     17  C5  UNK     1       1.265  34.732 231.458  1.00  0.00     0.044 C 
BRANCH  16  18
ATOM     18  N2  UNK     1      -1.002  35.605 231.559  1.00  0.00     0.085 N 
ATOM     19  C8  UNK     1      -0.651  35.724 230.145  1.00  0.00     0.310 C 
ATOM     20  C9  UNK     1      -1.669  36.819 232.025  1.00  0.00     0.310 C 
ENDBRANCH  16  18
ENDBRANCH  15  16
ENDBRANCH   2  15
TORSDOF 3
ENDMDL
MODEL 3
REMARK VINA RESULT:      -6.1      1.940      5.647
REMARK  3 active torsions:
REMARK  status: ('A' for Active; 'I' for Inactive)
REMARK    1  A    between atoms: N1_2  and  C2_5 
REMARK    2  A    between atoms: N2_3  and  C1_4 
REMARK    3  A    between atoms: C1_4  and  C2_5 
ROOT
ATOM      1  S1  UNK     1       3.079  33.203 237.251  1.00  0.00    -0.086 SA
ATOM      2  N1  UNK     1       1.699  35.505 235.681  1.00  0.00    -0.343 N 
ATOM      3  C3  UNK     1       2.624  35.908 236.677  1.00  0.00     0.052 A 
ATOM      4  C4  UNK     1       1.680  34.233 235.053  1.00  0.00     0.052 A 
ATOM      5  C6  UNK     1       3.331  34.957 237.439  1.00  0.00     0.032 A 
ATOM      6  C7  UNK     1       2.294  33.117 235.654  1.00  0.00     0.032 A 
ATOM      7  C10 UNK     1       2.908  37.269 236.927  1.00  0.00     0.031 A 
ATOM      8  C11 UNK     1       1.084  34.033 233.788  1.00  0.00     0.031 A 
ATOM      9  C12 UNK     1       4.253  35.362 238.421  1.00  0.00     0.021 A 
ATOM     10  C13 UNK     1       2.280  31.861 235.023  1.00  0.00     0.021 A 
ATOM     11  C14 UNK     1       3.829  37.666 237.899  1.00  0.00     0.002 A 
ATOM     12  C15 UNK     1       1.078  32.783 233.163  1.00  0.00     0.002 A 
ATOM     13  C16 UNK     1       4.500  36.711 238.650  1.00  0.00     0.002 A 
ATOM     14  C17 UNK     1       1.672  31.694 233.783  1.00  0.00     0.002 A 
ENDROOT
BRANCH   2  15
ATOM     15  C2  UNK     1       0.728  36.503 235.215  1.00  0.00     0.164 C 
BRANCH  15  16
ATOM     16  C1  UNK     1      -0.463  36.585 236.176  1.00  0.00     0.236 C 
ATOM     17  C5  UNK     1      -0.633  37.984 236.768  1.00  0.00     0.044 C 
BRANCH  16  18
ATOM     18  N2  UNK     1      -1.684  36.229 235.452  1.00  0.00     0.085 N 
ATOM     19  C8  UNK     1      -2.024  34.826 235.685  1.00  0.00     0.310 C 
ATOM     20  C9  UNK     1      -1.523  36.487 234.023  1.00  0.00     0.310 C 
ENDBRANCH  16  18
ENDBRANCH  15  16
ENDBRANCH   2  15
TORSDOF 3
ENDMDL
MODEL 4
REMARK VINA RESULT:      -5.9      1.636      4.737
REMARK  3 active torsions:
REMARK  status: ('A' for Active; 'I' for Inactive)
REMARK    1  A    between atoms: N1_2  and  C2_5 
REMARK    2  A    between atoms: N2_3  and  C1_4 
REMARK    3  A    between atoms: C1_4  and  C2_5 
ROOT
ATOM      1  S1  UNK     1       3.007  37.505 237.743  1.00  0.00    -0.086 SA
ATOM      2  N1  UNK     1       2.059  34.552 237.530  1.00  0.00    -0.343 N 
ATOM      3  C3  UNK     1       3.159  34.783 238.393  1.00  0.00     0.052 A 
ATOM      4  C4  UNK     1       1.113  35.532 237.134  1.00  0.00     0.052 A 
ATOM      5  C6  UNK     1       3.665  36.083 238.591  1.00  0.00     0.032 A 
ATOM      6  C7  UNK     1       1.417  36.905 237.207  1.00  0.00     0.032 A 
ATOM      7  C10 UNK     1       3.774  33.739 239.119  1.00  0.00     0.031 A 
ATOM      8  C11 UNK     1      -0.180  35.184 236.684  1.00  0.00     0.031 A 
ATOM      9  C12 UNK     1       4.753  36.308 239.454  1.00  0.00     0.021 A 
ATOM     10  C13 UNK     1       0.473  37.873 236.821  1.00  0.00     0.021 A 
ATOM     11  C14 UNK     1       4.851  33.969 239.979  1.00  0.00     0.002 A 
ATOM     12  C15 UNK     1      -1.116  36.151 236.307  1.00  0.00     0.002 A 
ATOM     13  C16 UNK     1       5.343  35.255 240.144  1.00  0.00     0.002 A 
ATOM     14  C17 UNK     1      -0.788  37.497 236.371  1.00  0.00     0.002 A 
ENDROOT
BRANCH   2  15
ATOM     15  C2  UNK     1       1.841  33.176 237.065  1.00  0.00     0.164 C 
BRANCH  15  16
ATOM     16  C1  UNK     1       2.507  32.956 235.703  1.00  0.00     0.236 C 
ATOM     17  C5  UNK     1       3.722  32.035 235.795  1.00  0.00     0.044 C 
BRANCH  16  18
ATOM     18  N2  UNK     1       1.533  32.358 234.788  1.00  0.00     0.085 N 
ATOM     19  C8  UNK     1       2.084  31.150 234.175  1.00  0.00     0.310 C 
ATOM     20  C9  UNK     1       1.141  33.321 233.760  1.00  0.00     0.310 C 
ENDBRANCH  16  18
ENDBRANCH  15  16
ENDBRANCH   2  15
TORSDOF 3
ENDMDL
MODEL 5
REMARK VINA RESULT:      -5.7      2.428      6.327
REMARK  3 active torsions:
REMARK  status: ('A' for Active; 'I' for Inactive)
REMARK    1  A    between atoms: N1_2  and  C2_5 
REMARK    2  A    between atoms: N2_3  and  C1_4 
REMARK    3  A    between atoms: C1_4  and  C2_5 
ROOT
ATOM      1  S1  UNK     1       3.544  34.131 238.378  1.00  0.00    -0.086 SA
ATOM      2  N1  UNK     1       2.531  33.641 235.480  1.00  0.00    -0.343 N 
ATOM      3  C3  UNK     1       2.399  34.968 235.961  1.00  0.00     0.052 A 
ATOM      4  C4  UNK     1       3.440  32.677 235.985  1.00  0.00     0.052 A 
ATOM      5  C6  UNK     1       2.844  35.320 237.251  1.00  0.00     0.032 A 
ATOM      6  C7  UNK     1       3.988  32.802 237.277  1.00  0.00     0.032 A 
ATOM      7  C10 UNK     1       1.855  36.001 235.166  1.00  0.00     0.031 A 
ATOM      8  C11 UNK     1       3.865  31.573 235.213  1.00  0.00     0.031 A 
ATOM      9  C12 UNK     1       2.718  36.640 237.720  1.00  0.00     0.021 A 
ATOM     10  C13 UNK     1       4.895  31.848 237.770  1.00  0.00     0.021 A 
ATOM     11  C14 UNK     1       1.737  37.312 235.636  1.00  0.00     0.002 A 
ATOM     12  C15 UNK     1       4.772  30.631 235.706  1.00  0.00     0.002 A 
ATOM     13  C16 UNK     1       2.166  37.631 236.916  1.00  0.00     0.002 A 
ATOM     14  C17 UNK     1       5.284  30.766 236.988  1.00  0.00     0.002 A 
ENDROOT
BRANCH   2  15
ATOM     15  C2  UNK     1       1.710  33.255 234.324  1.00  0.00     0.164 C 
BRANCH  15  16
ATOM     16  C1  UNK     1       0.425  32.559 234.785  1.00  0.00     0.236 C 
ATOM     17  C5  UNK     1      -0.805  33.449 234.621  1.00  0.00     0.044 C 
BRANCH  16  18
ATOM     18  N2  UNK     1       0.234  31.342 233.994  1.00  0.00     0.085 N 
ATOM     19  C8  UNK     1       0.460  30.157 234.820  1.00  0.00     0.310 C 
ATOM     20  C9  UNK     1       1.128  31.339 232.838  1.00  0.00     0.310 C 
ENDBRANCH  16  18
ENDBRANCH  15  16
ENDBRANCH   2  15
TORSDOF 3
ENDMDL
MODEL 6
REMARK VINA RESULT:      -5.6      1.124      4.339
REMARK  3 active torsions:
REMARK  status: ('A' for Active; 'I' for Inactive)
REMARK    1  A    between atoms: N1_2  and  C2_5 
REMARK    2  A    between atoms: N2_3  and  C1_4 
REMARK    3  A    between atoms: C1_4  and  C2_5 
ROOT
ATOM      1  S1  UNK     1       0.070  34.802 233.896  1.00  0.00    -0.086 SA
ATOM      2  N1  UNK     1       2.291  35.120 236.048  1.00  0.00    -0.343 N 
ATOM      3  C3  UNK     1       1.200  36.018 236.153  1.00  0.00     0.052 A 
ATOM      4  C4  UNK     1       2.256  33.869 235.380  1.00  0.00     0.052 A 
ATOM      5  C6  UNK     1       0.120  35.958 235.251  1.00  0.00     0.032 A 
ATOM      6  C7  UNK     1       1.280  33.595 234.401  1.00  0.00     0.032 A 
ATOM      7  C10 UNK     1       1.124  36.985 237.180  1.00  0.00     0.031 A 
ATOM      8  C11 UNK     1       3.165  32.832 235.685  1.00  0.00     0.031 A 
ATOM      9  C12 UNK     1      -0.964  36.847 235.365  1.00  0.00     0.021 A 
ATOM     10  C13 UNK     1       1.244  32.351 233.748  1.00  0.00     0.021 A 
ATOM     11  C14 UNK     1       0.043  37.863 237.291  1.00  0.00     0.002 A 
ATOM     12  C15 UNK     1       3.121  31.595 235.037  1.00  0.00     0.002 A 
ATOM     13  C16 UNK     1      -1.001  37.796 236.380  1.00  0.00     0.002 A 
ATOM     14  C17 UNK     1       2.162  31.355 234.064  1.00  0.00     0.002 A 
ENDROOT
BRANCH   2  15
ATOM     15  C2  UNK     1       3.535  35.480 236.741  1.00  0.00     0.164 C 
BRANCH  15  16
ATOM     16  C1  UNK     1       3.386  35.281 238.253  1.00  0.00     0.236 C 
ATOM     17  C5  UNK     1       4.030  33.981 238.732  1.00  0.00     0.044 C 
BRANCH  16  18
ATOM     18  N2  UNK     1       4.021  36.403 238.946  1.00  0.00     0.085 N 
ATOM     19  C8  UNK     1       4.622  37.324 237.981  1.00  0.00     0.310 C 
ATOM     20  C9  UNK     1       5.028  35.918 239.887  1.00  0.00     0.310 C 
ENDBRANCH  16  18
ENDBRANCH  15  16
ENDBRANCH   2  15
TORSDOF 3
ENDMDL
MODEL 7
REMARK VINA RESULT:      -5.5      1.611      4.615
REMARK  3 active torsions:
REMARK  status: ('A' for Active; 'I' for Inactive)
REMARK    1  A    between atoms: N1_2  and  C2_5 
REMARK    2  A    between atoms: N2_3  and  C1_4 
REMARK    3  A    between atoms: C1_4  and  C2_5 
ROOT
ATOM      1  S1  UNK     1       0.380  33.027 233.628  1.00  0.00    -0.086 SA
ATOM      2  N1  UNK     1       1.144  34.119 236.437  1.00  0.00    -0.343 N 
ATOM      3  C3  UNK     1      -0.197  34.341 236.035  1.00  0.00     0.052 A 
ATOM      4  C4  UNK     1       1.995  33.111 235.916  1.00  0.00     0.052 A 
ATOM      5  C6  UNK     1      -0.670  33.872 234.793  1.00  0.00     0.032 A 
ATOM      6  C7  UNK     1       1.739  32.520 234.663  1.00  0.00     0.032 A 
ATOM      7  C10 UNK     1      -1.127  35.003 236.866  1.00  0.00     0.031 A 
ATOM      8  C11 UNK     1       3.110  32.627 236.636  1.00  0.00     0.031 A 
ATOM      9  C12 UNK     1      -2.004  34.089 234.403  1.00  0.00     0.021 A 
ATOM     10  C13 UNK     1       2.581  31.516 234.154  1.00  0.00     0.021 A 
ATOM     11  C14 UNK     1      -2.452  35.211 236.475  1.00  0.00     0.002 A 
ATOM     12  C15 UNK     1       3.940  31.624 236.129  1.00  0.00     0.002 A 
ATOM     13  C16 UNK     1      -2.890  34.756 235.241  1.00  0.00     0.002 A 
ATOM     14  C17 UNK     1       3.678  31.070 234.884  1.00  0.00     0.002 A 
ENDROOT
BRANCH   2  15
ATOM     15  C2  UNK     1       1.672  34.952 237.525  1.00  0.00     0.164 C 
BRANCH  15  16
ATOM     16  C1  UNK     1       2.402  36.176 236.960  1.00  0.00     0.236 C 
ATOM     17  C5  UNK     1       1.667  37.480 237.265  1.00  0.00     0.044 C 
BRANCH  16  18
ATOM     18  N2  UNK     1       3.742  36.243 237.546  1.00  0.00     0.085 N 
ATOM     19  C8  UNK     1       3.772  35.544 238.830  1.00  0.00     0.310 C 
ATOM     20  C9  UNK     1       4.157  37.634 237.711  1.00  0.00     0.310 C 
ENDBRANCH  16  18
ENDBRANCH  15  16
ENDBRANCH   2  15
TORSDOF 3
ENDMDL
MODEL 8
REMARK VINA RESULT:      -5.4      2.409      6.099
REMARK  3 active torsions:
REMARK  status: ('A' for Active; 'I' for Inactive)
REMARK    1  A    between atoms: N1_2  and  C2_5 
REMARK    2  A    between atoms: N2_3  and  C1_4 
REMARK    3  A    between atoms: C1_4  and  C2_5 
ROOT
ATOM      1  S1  UNK     1       3.335  34.749 236.976  1.00  0.00    -0.086 SA
ATOM      2  N1  UNK     1       0.480  33.777 236.221  1.00  0.00    -0.343 N 
ATOM      3  C3  UNK     1       0.600  35.157 236.523  1.00  0.00     0.052 A 
ATOM      4  C4  UNK     1       1.546  32.937 235.808  1.00  0.00     0.052 A 
ATOM      5  C6  UNK     1       1.847  35.721 236.856  1.00  0.00     0.032 A 
ATOM      6  C7  UNK     1       2.886  33.283 236.070  1.00  0.00     0.032 A 
ATOM      7  C10 UNK     1      -0.506  36.034 236.469  1.00  0.00     0.031 A 
ATOM      8  C11 UNK     1       1.320  31.744 235.087  1.00  0.00     0.031 A 
ATOM      9  C12 UNK     1       1.962  37.093 237.147  1.00  0.00     0.021 A 
ATOM     10  C13 UNK     1       3.939  32.451 235.650  1.00  0.00     0.021 A 
ATOM     11  C14 UNK     1      -0.385  37.396 236.754  1.00  0.00     0.002 A 
ATOM     12  C15 UNK     1       2.371  30.924 234.667  1.00  0.00     0.002 A 
ATOM     13  C16 UNK     1       0.850  37.926 237.097  1.00  0.00     0.002 A 
ATOM     14  C17 UNK     1       3.682  31.275 234.952  1.00  0.00     0.002 A 
ENDROOT
BRANCH   2  15
ATOM     15  C2  UNK     1      -0.864  33.187 236.276  1.00  0.00     0.164 C 
BRANCH  15  16
ATOM     16  C1  UNK     1      -1.202  32.748 237.705  1.00  0.00     0.236 C 
ATOM     17  C5  UNK     1      -2.392  33.515 238.278  1.00  0.00     0.044 C 
BRANCH  16  18
ATOM     18  N2  UNK     1      -1.521  31.320 237.701  1.00  0.00     0.085 N 
ATOM     19  C8  UNK     1      -0.345  30.534 238.072  1.00  0.00     0.310 C 
ATOM     20  C9  UNK     1      -2.017  30.911 236.389  1.00  0.00     0.310 C 
ENDBRANCH  16  18
ENDBRANCH  15  16
ENDBRANCH   2  15
TORSDOF 3
ENDMDL
MODEL 9
REMARK VINA RESULT:      -5.3      2.325      3.280
REMARK  3 active torsions:
REMARK  status: ('A' for Active; 'I' for Inactive)
REMARK    1  A    between atoms: N1_2  and  C2_5 
REMARK    2  A    between atoms: N2_3  and  C1_4 
REMARK    3  A    between atoms: C1_4  and  C2_5 
ROOT
ATOM      1  S1  UNK     1      -2.021  35.050 234.941  1.00  0.00    -0.086 SA
ATOM      2  N1  UNK     1       1.080  34.861 234.814  1.00  0.00    -0.343 N 
ATOM      3  C3  UNK     1       0.380  34.191 233.779  1.00  0.00     0.052 A 
ATOM      4  C4  UNK     1       0.560  35.925 235.594  1.00  0.00     0.052 A 
ATOM      5  C6  UNK     1      -1.027  34.224 233.715  1.00  0.00     0.032 A 
ATOM      6  C7  UNK     1      -0.829  36.130 235.709  1.00  0.00     0.032 A 
ATOM      7  C10 UNK     1       1.052  33.495 232.750  1.00  0.00     0.031 A 
ATOM      8  C11 UNK     1       1.401  36.846 236.257  1.00  0.00     0.031 A 
ATOM      9  C12 UNK     1      -1.716  33.564 232.682  1.00  0.00     0.021 A 
ATOM     10  C13 UNK     1      -1.339  37.192 236.476  1.00  0.00     0.021 A 
ATOM     11  C14 UNK     1       0.362  32.846 231.723  1.00  0.00     0.002 A 
ATOM     12  C15 UNK     1       0.888  37.904 237.013  1.00  0.00     0.002 A 
ATOM     13  C16 UNK     1      -1.024  32.877 231.691  1.00  0.00     0.002 A 
ATOM     14  C17 UNK     1      -0.483  38.075 237.127  1.00  0.00     0.002 A 
ENDROOT
BRANCH   2  15
ATOM     15  C2  UNK     1       2.475  34.468 235.052  1.00  0.00     0.164 C 
BRANCH  15  16
ATOM     16  C1  UNK     1       2.545  33.318 236.063  1.00  0.00     0.236 C 
ATOM     17  C5  UNK     1       3.134  32.047 235.454  1.00  0.00     0.044 C 
BRANCH  16  18
ATOM     18  N2  UNK     1       3.381  33.729 237.193  1.00  0.00     0.085 N 
ATOM     19  C8  UNK     1       4.344  32.678 237.522  1.00  0.00     0.310 C 
ATOM     20  C9  UNK     1       2.551  34.045 238.353  1.00  0.00     0.310 C 
ENDBRANCH  16  18
ENDBRANCH  15  16
ENDBRANCH   2  15
TORSDOF 3
ENDMDL
