MODEL 1
REMARK VINA RESULT:      -1.2      0.000      0.000
REMARK  13 active torsions:
REMARK  status: ('A' for Active; 'I' for Inactive)
REMARK    1  A    between atoms: O1_2  and  C2_3 
REMARK    2  A    between atoms: C4_5  and  O2_6 
REMARK    3  A    between atoms: C8_11  and  C9_12 
REMARK    4  A    between atoms: C9_12  and  C10_13 
REMARK    5  A    between atoms: C9_12  and  C14_18 
REMARK    6  A    between atoms: C14_18  and  C15_19 
REMARK    7  A    between atoms: C15_19  and  C16_20 
REMARK    8  A    between atoms: C16_20  and  N2_21 
REMARK    9  A    between atoms: N2_21  and  C18_23 
REMARK   10  A    between atoms: C18_23  and  C19_24 
REMARK   11  A    between atoms: C19_24  and  C20_25 
REMARK   12  A    between atoms: C24_29  and  O3_30 
REMARK   13  A    between atoms: C26_32  and  O4_33 
ROOT
ATOM      1  C5  UNK     1      -3.691  40.959 240.720  1.00  0.00     0.000 C 
ENDROOT
TORSDOF 13
ENDMDL
MODEL 2
REMARK VINA RESULT:      -1.0     23.483     23.483
REMARK  13 active torsions:
REMARK  status: ('A' for Active; 'I' for Inactive)
REMARK    1  A    between atoms: O1_2  and  C2_3 
REMARK    2  A    between atoms: C4_5  and  O2_6 
REMARK    3  A    between atoms: C8_11  and  C9_12 
REMARK    4  A    between atoms: C9_12  and  C10_13 
REMARK    5  A    between atoms: C9_12  and  C14_18 
REMARK    6  A    between atoms: C14_18  and  C15_19 
REMARK    7  A    between atoms: C15_19  and  C16_20 
REMARK    8  A    between atoms: C16_20  and  N2_21 
REMARK    9  A    between atoms: N2_21  and  C18_23 
REMARK   10  A    between atoms: C18_23  and  C19_24 
REMARK   11  A    between atoms: C19_24  and  C20_25 
REMARK   12  A    between atoms: C24_29  and  O3_30 
REMARK   13  A    between atoms: C26_32  and  O4_33 
ROOT
ATOM      1  C5  UNK     1       7.245  48.630 221.407  1.00  0.00     0.000 C 
ENDROOT
TORSDOF 13
ENDMDL
MODEL 3
REMARK VINA RESULT:      -0.9      6.374      6.374
REMARK  13 active torsions:
REMARK  status: ('A' for Active; 'I' for Inactive)
REMARK    1  A    between atoms: O1_2  and  C2_3 
REMARK    2  A    between atoms: C4_5  and  O2_6 
REMARK    3  A    between atoms: C8_11  and  C9_12 
REMARK    4  A    between atoms: C9_12  and  C10_13 
REMARK    5  A    between atoms: C9_12  and  C14_18 
REMARK    6  A    between atoms: C14_18  and  C15_19 
REMARK    7  A    between atoms: C15_19  and  C16_20 
REMARK    8  A    between atoms: C16_20  and  N2_21 
REMARK    9  A    between atoms: N2_21  and  C18_23 
REMARK   10  A    between atoms: C18_23  and  C19_24 
REMARK   11  A    between atoms: C19_24  and  C20_25 
REMARK   12  A    between atoms: C24_29  and  O3_30 
REMARK   13  A    between atoms: C26_32  and  O4_33 
ROOT
ATOM      1  C5  UNK     1       0.506  37.796 237.114  1.00  0.00     0.000 C 
ENDROOT
TORSDOF 13
ENDMDL
MODEL 4
REMARK VINA RESULT:      -0.8      6.193      6.193
REMARK  13 active torsions:
REMARK  status: ('A' for Active; 'I' for Inactive)
REMARK    1  A    between atoms: O1_2  and  C2_3 
REMARK    2  A    between atoms: C4_5  and  O2_6 
REMARK    3  A    between atoms: C8_11  and  C9_12 
REMARK    4  A    between atoms: C9_12  and  C10_13 
REMARK    5  A    between atoms: C9_12  and  C14_18 
REMARK    6  A    between atoms: C14_18  and  C15_19 
REMARK    7  A    between atoms: C15_19  and  C16_20 
REMARK    8  A    between atoms: C16_20  and  N2_21 
REMARK    9  A    between atoms: N2_21  and  C18_23 
REMARK   10  A    between atoms: C18_23  and  C19_24 
REMARK   11  A    between atoms: C19_24  and  C20_25 
REMARK   12  A    between atoms: C24_29  and  O3_30 
REMARK   13  A    between atoms: C26_32  and  O4_33 
ROOT
ATOM      1  C5  UNK     1       0.472  37.912 237.294  1.00  0.00     0.000 C 
ENDROOT
TORSDOF 13
ENDMDL
MODEL 5
REMARK VINA RESULT:      -0.8     13.469     13.469
REMARK  13 active torsions:
REMARK  status: ('A' for Active; 'I' for Inactive)
REMARK    1  A    between atoms: O1_2  and  C2_3 
REMARK    2  A    between atoms: C4_5  and  O2_6 
REMARK    3  A    between atoms: C8_11  and  C9_12 
REMARK    4  A    between atoms: C9_12  and  C10_13 
REMARK    5  A    between atoms: C9_12  and  C14_18 
REMARK    6  A    between atoms: C14_18  and  C15_19 
REMARK    7  A    between atoms: C15_19  and  C16_20 
REMARK    8  A    between atoms: C16_20  and  N2_21 
REMARK    9  A    between atoms: N2_21  and  C18_23 
REMARK   10  A    between atoms: C18_23  and  C19_24 
REMARK   11  A    between atoms: C19_24  and  C20_25 
REMARK   12  A    between atoms: C24_29  and  O3_30 
REMARK   13  A    between atoms: C26_32  and  O4_33 
ROOT
ATOM      1  C5  UNK     1       4.712  42.322 230.283  1.00  0.00     0.000 C 
ENDROOT
TORSDOF 13
ENDMDL
MODEL 6
REMARK VINA RESULT:      -0.7     14.198     14.198
REMARK  13 active torsions:
REMARK  status: ('A' for Active; 'I' for Inactive)
REMARK    1  A    between atoms: O1_2  and  C2_3 
REMARK    2  A    between atoms: C4_5  and  O2_6 
REMARK    3  A    between atoms: C8_11  and  C9_12 
REMARK    4  A    between atoms: C9_12  and  C10_13 
REMARK    5  A    between atoms: C9_12  and  C14_18 
REMARK    6  A    between atoms: C14_18  and  C15_19 
REMARK    7  A    between atoms: C15_19  and  C16_20 
REMARK    8  A    between atoms: C16_20  and  N2_21 
REMARK    9  A    between atoms: N2_21  and  C18_23 
REMARK   10  A    between atoms: C18_23  and  C19_24 
REMARK   11  A    between atoms: C19_24  and  C20_25 
REMARK   12  A    between atoms: C24_29  and  O3_30 
REMARK   13  A    between atoms: C26_32  and  O4_33 
ROOT
ATOM      1  C5  UNK     1       4.225  42.322 229.013  1.00  0.00     0.000 C 
ENDROOT
TORSDOF 13
ENDMDL
MODEL 7
REMARK VINA RESULT:      -0.7      8.931      8.931
REMARK  13 active torsions:
REMARK  status: ('A' for Active; 'I' for Inactive)
REMARK    1  A    between atoms: O1_2  and  C2_3 
REMARK    2  A    between atoms: C4_5  and  O2_6 
REMARK    3  A    between atoms: C8_11  and  C9_12 
REMARK    4  A    between atoms: C9_12  and  C10_13 
REMARK    5  A    between atoms: C9_12  and  C14_18 
REMARK    6  A    between atoms: C14_18  and  C15_19 
REMARK    7  A    between atoms: C15_19  and  C16_20 
REMARK    8  A    between atoms: C16_20  and  N2_21 
REMARK    9  A    between atoms: N2_21  and  C18_23 
REMARK   10  A    between atoms: C18_23  and  C19_24 
REMARK   11  A    between atoms: C19_24  and  C20_25 
REMARK   12  A    between atoms: C24_29  and  O3_30 
REMARK   13  A    between atoms: C26_32  and  O4_33 
ROOT
ATOM      1  C5  UNK     1       3.958  37.541 237.628  1.00  0.00     0.000 C 
ENDROOT
TORSDOF 13
ENDMDL
MODEL 8
REMARK VINA RESULT:      -0.7     12.970     12.970
REMARK  13 active torsions:
REMARK  status: ('A' for Active; 'I' for Inactive)
REMARK    1  A    between atoms: O1_2  and  C2_3 
REMARK    2  A    between atoms: C4_5  and  O2_6 
REMARK    3  A    between atoms: C8_11  and  C9_12 
REMARK    4  A    between atoms: C9_12  and  C10_13 
REMARK    5  A    between atoms: C9_12  and  C14_18 
REMARK    6  A    between atoms: C14_18  and  C15_19 
REMARK    7  A    between atoms: C15_19  and  C16_20 
REMARK    8  A    between atoms: C16_20  and  N2_21 
REMARK    9  A    between atoms: N2_21  and  C18_23 
REMARK   10  A    between atoms: C18_23  and  C19_24 
REMARK   11  A    between atoms: C19_24  and  C20_25 
REMARK   12  A    between atoms: C24_29  and  O3_30 
REMARK   13  A    between atoms: C26_32  and  O4_33 
ROOT
ATOM      1  C5  UNK     1       1.405  34.909 230.441  1.00  0.00     0.000 C 
ENDROOT
TORSDOF 13
ENDMDL
MODEL 9
REMARK VINA RESULT:      -0.7     15.245     15.245
REMARK  13 active torsions:
REMARK  status: ('A' for Active; 'I' for Inactive)
REMARK    1  A    between atoms: O1_2  and  C2_3 
REMARK    2  A    between atoms: C4_5  and  O2_6 
REMARK    3  A    between atoms: C8_11  and  C9_12 
REMARK    4  A    between atoms: C9_12  and  C10_13 
REMARK    5  A    between atoms: C9_12  and  C14_18 
REMARK    6  A    between atoms: C14_18  and  C15_19 
REMARK    7  A    between atoms: C15_19  and  C16_20 
REMARK    8  A    between atoms: C16_20  and  N2_21 
REMARK    9  A    between atoms: N2_21  and  C18_23 
REMARK   10  A    between atoms: C18_23  and  C19_24 
REMARK   11  A    between atoms: C19_24  and  C20_25 
REMARK   12  A    between atoms: C24_29  and  O3_30 
REMARK   13  A    between atoms: C26_32  and  O4_33 
ROOT
ATOM      1  C5  UNK     1       1.932  42.034 226.591  1.00  0.00     0.000 C 
ENDROOT
TORSDOF 13
ENDMDL
