MODEL 1
REMARK VINA RESULT:      -6.4      0.000      0.000
REMARK  6 active torsions:
REMARK  status: ('A' for Active; 'I' for Inactive)
REMARK    1  A    between atoms: O1_2  and  C7_14 
REMARK    2  A    between atoms: O1_2  and  C14_21 
REMARK    3  A    between atoms: O2_3  and  C19_26 
REMARK    4  A    between atoms: N1_4  and  C5_12 
REMARK    5  A    between atoms: C5_12  and  C7_14 
REMARK    6  A    between atoms: C14_21  and  C19_26 
ROOT
ATOM      1  S1  UNK     1      -1.576  34.841 231.495  1.00  0.00    -0.087 SA
ATOM      2  N1  UNK     1      -1.844  40.528 227.504  1.00  0.00     0.093 N 
ATOM      3  N2  UNK     1      -2.181  37.951 228.666  1.00  0.00    -0.363 N 
ATOM      4  N3  UNK     1      -3.273  35.981 229.101  1.00  0.00    -0.341 N 
ATOM      5  H3  UNK     1      -4.140  36.510 229.012  1.00  0.00     0.167 HD
ATOM      6  C1  UNK     1      -2.713  39.528 226.867  1.00  0.00     0.292 C 
ATOM      7  C2  UNK     1      -0.727  39.868 228.196  1.00  0.00     0.292 C 
ATOM      8  C3  UNK     1      -3.272  38.551 227.903  1.00  0.00     0.154 C 
ATOM      9  C4  UNK     1      -1.241  38.898 229.261  1.00  0.00     0.154 C 
ATOM     10  C6  UNK     1      -2.147  36.630 228.954  1.00  0.00     0.115 C 
ATOM     11  C8  UNK     1      -0.786  36.026 229.085  1.00  0.00     0.025 A 
ATOM     12  C9  UNK     1      -0.416  35.264 230.204  1.00  0.00     0.019 A 
ATOM     13  C10 UNK     1       0.154  36.299 228.082  1.00  0.00     0.016 A 
ATOM     14  C11 UNK     1      -3.374  34.606 229.374  1.00  0.00     0.051 A 
ATOM     15  C12 UNK     1      -2.742  33.970 230.458  1.00  0.00     0.032 A 
ATOM     16  C13 UNK     1       0.899  34.789 230.306  1.00  0.00     0.020 A 
ATOM     17  C15 UNK     1       1.456  35.814 228.191  1.00  0.00     0.001 A 
ATOM     18  C16 UNK     1       1.829  35.063 229.303  1.00  0.00     0.001 A 
ATOM     19  C17 UNK     1      -4.245  33.855 228.573  1.00  0.00     0.031 A 
ATOM     20  C18 UNK     1      -2.979  32.611 230.714  1.00  0.00     0.021 A 
ATOM     21  C20 UNK     1      -4.473  32.502 228.826  1.00  0.00     0.002 A 
ATOM     22  C21 UNK     1      -3.841  31.881 229.899  1.00  0.00     0.002 A 
ENDROOT
BRANCH   2  23
ATOM     23  C5  UNK     1      -1.344  41.480 226.514  1.00  0.00     0.298 C 
BRANCH  23  24
ATOM     24  C7  UNK     1       0.175  41.546 226.551  1.00  0.00     0.198 C 
BRANCH  24  25
ATOM     25  O1  UNK     1       0.564  42.751 227.197  1.00  0.00    -0.387 OA
BRANCH  25  26
ATOM     26  C14 UNK     1       1.881  42.659 227.723  1.00  0.00     0.193 C 
BRANCH  26  27
ATOM     27  C19 UNK     1       1.804  42.238 229.178  1.00  0.00     0.190 C 
BRANCH  27  28
ATOM     28  O2  UNK     1       0.672  42.855 229.780  1.00  0.00    -0.399 OA
ATOM     29  H25 UNK     1      -0.122  42.412 229.437  1.00  0.00     0.209 HD
ENDBRANCH  27  28
ENDBRANCH  26  27
ENDBRANCH  25  26
ENDBRANCH  24  25
ENDBRANCH  23  24
ENDBRANCH   2  23
TORSDOF 6
ENDMDL
MODEL 2
REMARK VINA RESULT:      -6.4      5.582      7.587
REMARK  6 active torsions:
REMARK  status: ('A' for Active; 'I' for Inactive)
REMARK    1  A    between atoms: O1_2  and  C7_14 
REMARK    2  A    between atoms: O1_2  and  C14_21 
REMARK    3  A    between atoms: O2_3  and  C19_26 
REMARK    4  A    between atoms: N1_4  and  C5_12 
REMARK    5  A    between atoms: C5_12  and  C7_14 
REMARK    6  A    between atoms: C14_21  and  C19_26 
ROOT
ATOM      1  S1  UNK     1       1.479  33.514 237.865  1.00  0.00    -0.087 SA
ATOM      2  N1  UNK     1      -2.402  35.395 232.412  1.00  0.00     0.093 N 
ATOM      3  N2  UNK     1      -0.449  34.284 234.159  1.00  0.00    -0.363 N 
ATOM      4  N3  UNK     1       1.139  32.767 234.827  1.00  0.00    -0.341 N 
ATOM      5  H3  UNK     1       0.608  32.071 234.304  1.00  0.00     0.167 HD
ATOM      6  C1  UNK     1      -1.314  34.559 231.883  1.00  0.00     0.292 C 
ATOM      7  C2  UNK     1      -1.945  36.141 233.593  1.00  0.00     0.292 C 
ATOM      8  C3  UNK     1      -0.822  33.570 232.941  1.00  0.00     0.154 C 
ATOM      9  C4  UNK     1      -1.466  35.188 234.689  1.00  0.00     0.154 C 
ATOM     10  C6  UNK     1       0.680  33.992 234.846  1.00  0.00     0.115 C 
ATOM     11  C8  UNK     1       1.304  35.130 235.587  1.00  0.00     0.025 A 
ATOM     12  C9  UNK     1       1.642  35.037 236.945  1.00  0.00     0.019 A 
ATOM     13  C10 UNK     1       1.487  36.339 234.901  1.00  0.00     0.016 A 
ATOM     14  C11 UNK     1       2.311  32.343 235.474  1.00  0.00     0.051 A 
ATOM     15  C12 UNK     1       2.566  32.529 236.844  1.00  0.00     0.032 A 
ATOM     16  C13 UNK     1       2.155  36.163 237.604  1.00  0.00     0.020 A 
ATOM     17  C15 UNK     1       2.005  37.450 235.566  1.00  0.00     0.001 A 
ATOM     18  C16 UNK     1       2.335  37.363 236.916  1.00  0.00     0.001 A 
ATOM     19  C17 UNK     1       3.227  31.595 234.719  1.00  0.00     0.031 A 
ATOM     20  C18 UNK     1       3.718  31.983 237.429  1.00  0.00     0.021 A 
ATOM     21  C20 UNK     1       4.375  31.059 235.302  1.00  0.00     0.002 A 
ATOM     22  C21 UNK     1       4.619  31.252 236.658  1.00  0.00     0.002 A 
ENDROOT
BRANCH   2  23
ATOM     23  C5  UNK     1      -2.892  36.311 231.383  1.00  0.00     0.298 C 
BRANCH  23  24
ATOM     24  C7  UNK     1      -1.731  36.985 230.668  1.00  0.00     0.198 C 
BRANCH  24  25
ATOM     25  O1  UNK     1      -2.188  37.471 229.412  1.00  0.00    -0.387 OA
BRANCH  25  26
ATOM     26  C14 UNK     1      -1.334  38.486 228.903  1.00  0.00     0.193 C 
BRANCH  26  27
ATOM     27  C19 UNK     1      -2.182  39.577 228.278  1.00  0.00     0.190 C 
BRANCH  27  28
ATOM     28  O2  UNK     1      -1.935  40.803 228.956  1.00  0.00    -0.399 OA
ATOM     29  H25 UNK     1      -1.082  41.147 228.641  1.00  0.00     0.209 HD
ENDBRANCH  27  28
ENDBRANCH  26  27
ENDBRANCH  25  26
ENDBRANCH  24  25
ENDBRANCH  23  24
ENDBRANCH   2  23
TORSDOF 6
ENDMDL
MODEL 3
REMARK VINA RESULT:      -6.1      4.568      6.844
REMARK  6 active torsions:
REMARK  status: ('A' for Active; 'I' for Inactive)
REMARK    1  A    between atoms: O1_2  and  C7_14 
REMARK    2  A    between atoms: O1_2  and  C14_21 
REMARK    3  A    between atoms: O2_3  and  C19_26 
REMARK    4  A    between atoms: N1_4  and  C5_12 
REMARK    5  A    between atoms: C5_12  and  C7_14 
REMARK    6  A    between atoms: C14_21  and  C19_26 
ROOT
ATOM      1  S1  UNK     1      -0.948  32.542 228.453  1.00  0.00    -0.087 SA
ATOM      2  N1  UNK     1      -2.129  35.666 234.550  1.00  0.00     0.093 N 
ATOM      3  N2  UNK     1      -1.229  34.935 231.950  1.00  0.00    -0.363 N 
ATOM      4  N3  UNK     1      -0.383  35.305 229.850  1.00  0.00    -0.341 N 
ATOM      5  H3  UNK     1      -0.850  36.211 229.886  1.00  0.00     0.167 HD
ATOM      6  C1  UNK     1      -1.159  36.506 233.830  1.00  0.00     0.292 C 
ATOM      7  C2  UNK     1      -1.945  34.253 234.193  1.00  0.00     0.292 C 
ATOM      8  C3  UNK     1      -1.316  36.346 232.317  1.00  0.00     0.154 C 
ATOM      9  C4  UNK     1      -2.119  34.042 232.688  1.00  0.00     0.154 C 
ATOM     10  C6  UNK     1      -0.513  34.514 230.883  1.00  0.00     0.115 C 
ATOM     11  C8  UNK     1       0.070  33.141 230.990  1.00  0.00     0.025 A 
ATOM     12  C9  UNK     1      -0.117  32.174 229.990  1.00  0.00     0.019 A 
ATOM     13  C10 UNK     1       0.762  32.810 232.163  1.00  0.00     0.016 A 
ATOM     14  C11 UNK     1       0.355  34.997 228.694  1.00  0.00     0.051 A 
ATOM     15  C12 UNK     1       0.156  33.842 227.917  1.00  0.00     0.032 A 
ATOM     16  C13 UNK     1       0.390  30.881 230.183  1.00  0.00     0.020 A 
ATOM     17  C15 UNK     1       1.267  31.523 232.339  1.00  0.00     0.001 A 
ATOM     18  C16 UNK     1       1.078  30.559 231.353  1.00  0.00     0.001 A 
ATOM     19  C17 UNK     1       1.268  35.960 228.240  1.00  0.00     0.031 A 
ATOM     20  C18 UNK     1       0.868  33.664 226.722  1.00  0.00     0.021 A 
ATOM     21  C20 UNK     1       1.980  35.776 227.054  1.00  0.00     0.002 A 
ATOM     22  C21 UNK     1       1.778  34.628 226.294  1.00  0.00     0.002 A 
ENDROOT
BRANCH   2  23
ATOM     23  C5  UNK     1      -1.998  35.853 235.994  1.00  0.00     0.298 C 
BRANCH  23  24
ATOM     24  C7  UNK     1      -1.225  37.126 236.302  1.00  0.00     0.198 C 
BRANCH  24  25
ATOM     25  O1  UNK     1      -0.060  36.785 237.042  1.00  0.00    -0.387 OA
BRANCH  25  26
ATOM     26  C14 UNK     1       0.990  37.718 236.823  1.00  0.00     0.193 C 
BRANCH  26  27
ATOM     27  C19 UNK     1       2.118  37.027 236.082  1.00  0.00     0.190 C 
BRANCH  27  28
ATOM     28  O2  UNK     1       2.048  37.372 234.704  1.00  0.00    -0.399 OA
ATOM     29  H25 UNK     1       2.845  37.885 234.488  1.00  0.00     0.209 HD
ENDBRANCH  27  28
ENDBRANCH  26  27
ENDBRANCH  25  26
ENDBRANCH  24  25
ENDBRANCH  23  24
ENDBRANCH   2  23
TORSDOF 6
ENDMDL
MODEL 4
REMARK VINA RESULT:      -5.9      4.388      6.595
REMARK  6 active torsions:
REMARK  status: ('A' for Active; 'I' for Inactive)
REMARK    1  A    between atoms: O1_2  and  C7_14 
REMARK    2  A    between atoms: O1_2  and  C14_21 
REMARK    3  A    between atoms: O2_3  and  C19_26 
REMARK    4  A    between atoms: N1_4  and  C5_12 
REMARK    5  A    between atoms: C5_12  and  C7_14 
REMARK    6  A    between atoms: C14_21  and  C19_26 
ROOT
ATOM      1  S1  UNK     1      -2.633  33.812 228.179  1.00  0.00    -0.087 SA
ATOM      2  N1  UNK     1       0.556  35.076 234.226  1.00  0.00     0.093 N 
ATOM      3  N2  UNK     1      -0.903  35.236 231.787  1.00  0.00    -0.363 N 
ATOM      4  N3  UNK     1      -2.442  36.106 230.325  1.00  0.00    -0.341 N 
ATOM      5  H3  UNK     1      -2.980  36.380 231.147  1.00  0.00     0.167 HD
ATOM      6  C1  UNK     1      -0.007  36.357 233.773  1.00  0.00     0.292 C 
ATOM      7  C2  UNK     1       0.936  34.249 233.072  1.00  0.00     0.292 C 
ATOM      8  C3  UNK     1      -1.235  36.132 232.891  1.00  0.00     0.154 C 
ATOM      9  C4  UNK     1      -0.272  33.977 232.173  1.00  0.00     0.154 C 
ATOM     10  C6  UNK     1      -1.315  35.473 230.520  1.00  0.00     0.115 C 
ATOM     11  C8  UNK     1      -0.416  34.967 229.438  1.00  0.00     0.025 A 
ATOM     12  C9  UNK     1      -0.896  34.172 228.386  1.00  0.00     0.019 A 
ATOM     13  C10 UNK     1       0.953  35.251 229.533  1.00  0.00     0.016 A 
ATOM     14  C11 UNK     1      -2.966  36.437 229.063  1.00  0.00     0.051 A 
ATOM     15  C12 UNK     1      -3.188  35.505 228.034  1.00  0.00     0.032 A 
ATOM     16  C13 UNK     1       0.008  33.664 227.442  1.00  0.00     0.020 A 
ATOM     17  C15 UNK     1       1.840  34.746 228.584  1.00  0.00     0.001 A 
ATOM     18  C16 UNK     1       1.370  33.951 227.542  1.00  0.00     0.001 A 
ATOM     19  C17 UNK     1      -3.387  37.761 228.869  1.00  0.00     0.031 A 
ATOM     20  C18 UNK     1      -3.809  35.905 226.841  1.00  0.00     0.021 A 
ATOM     21  C20 UNK     1      -3.997  38.157 227.679  1.00  0.00     0.002 A 
ATOM     22  C21 UNK     1      -4.210  37.227 226.666  1.00  0.00     0.002 A 
ENDROOT
BRANCH   2  23
ATOM     23  C5  UNK     1       1.707  35.300 235.099  1.00  0.00     0.298 C 
BRANCH  23  24
ATOM     24  C7  UNK     1       1.316  35.122 236.558  1.00  0.00     0.198 C 
BRANCH  24  25
ATOM     25  O1  UNK     1       1.369  36.388 237.203  1.00  0.00    -0.387 OA
BRANCH  25  26
ATOM     26  C14 UNK     1       2.308  37.253 236.578  1.00  0.00     0.193 C 
BRANCH  26  27
ATOM     27  C19 UNK     1       3.463  37.498 237.530  1.00  0.00     0.190 C 
BRANCH  27  28
ATOM     28  O2  UNK     1       4.655  36.976 236.957  1.00  0.00    -0.399 OA
ATOM     29  H25 UNK     1       4.478  36.057 236.695  1.00  0.00     0.209 HD
ENDBRANCH  27  28
ENDBRANCH  26  27
ENDBRANCH  25  26
ENDBRANCH  24  25
ENDBRANCH  23  24
ENDBRANCH   2  23
TORSDOF 6
ENDMDL
MODEL 5
REMARK VINA RESULT:      -5.9      3.837      6.761
REMARK  6 active torsions:
REMARK  status: ('A' for Active; 'I' for Inactive)
REMARK    1  A    between atoms: O1_2  and  C7_14 
REMARK    2  A    between atoms: O1_2  and  C14_21 
REMARK    3  A    between atoms: O2_3  and  C19_26 
REMARK    4  A    between atoms: N1_4  and  C5_12 
REMARK    5  A    between atoms: C5_12  and  C7_14 
REMARK    6  A    between atoms: C14_21  and  C19_26 
ROOT
ATOM      1  S1  UNK     1      -4.397  36.297 227.281  1.00  0.00    -0.087 SA
ATOM      2  N1  UNK     1      -0.968  34.827 233.147  1.00  0.00     0.093 N 
ATOM      3  N2  UNK     1      -2.028  36.032 230.796  1.00  0.00    -0.363 N 
ATOM      4  N3  UNK     1      -2.636  37.774 229.432  1.00  0.00    -0.341 N 
ATOM      5  H3  UNK     1      -2.821  38.300 230.285  1.00  0.00     0.167 HD
ATOM      6  C1  UNK     1      -0.540  36.173 232.738  1.00  0.00     0.292 C 
ATOM      7  C2  UNK     1      -1.284  34.011 231.966  1.00  0.00     0.292 C 
ATOM      8  C3  UNK     1      -1.633  36.870 231.925  1.00  0.00     0.154 C 
ATOM      9  C4  UNK     1      -2.392  34.659 231.135  1.00  0.00     0.154 C 
ATOM     10  C6  UNK     1      -2.220  36.540 229.557  1.00  0.00     0.115 C 
ATOM     11  C8  UNK     1      -1.934  35.612 228.421  1.00  0.00     0.025 A 
ATOM     12  C9  UNK     1      -2.862  35.391 227.391  1.00  0.00     0.019 A 
ATOM     13  C10 UNK     1      -0.727  34.900 228.441  1.00  0.00     0.016 A 
ATOM     14  C11 UNK     1      -2.848  38.425 228.205  1.00  0.00     0.051 A 
ATOM     15  C12 UNK     1      -3.676  37.930 227.182  1.00  0.00     0.032 A 
ATOM     16  C13 UNK     1      -2.568  34.451 226.393  1.00  0.00     0.020 A 
ATOM     17  C15 UNK     1      -0.444  33.974 227.439  1.00  0.00     0.001 A 
ATOM     18  C16 UNK     1      -1.364  33.747 226.419  1.00  0.00     0.001 A 
ATOM     19  C17 UNK     1      -2.277  39.697 228.047  1.00  0.00     0.031 A 
ATOM     20  C18 UNK     1      -3.910  38.695 226.030  1.00  0.00     0.021 A 
ATOM     21  C20 UNK     1      -2.507  40.453 226.896  1.00  0.00     0.002 A 
ATOM     22  C21 UNK     1      -3.326  39.952 225.889  1.00  0.00     0.002 A 
ENDROOT
BRANCH   2  23
ATOM     23  C5  UNK     1       0.067  34.183 233.955  1.00  0.00     0.298 C 
BRANCH  23  24
ATOM     24  C7  UNK     1      -0.066  34.586 235.416  1.00  0.00     0.198 C 
BRANCH  24  25
ATOM     25  O1  UNK     1       1.135  35.230 235.823  1.00  0.00    -0.387 OA
BRANCH  25  26
ATOM     26  C14 UNK     1       0.868  36.405 236.576  1.00  0.00     0.193 C 
BRANCH  26  27
ATOM     27  C19 UNK     1       1.696  37.547 236.020  1.00  0.00     0.190 C 
BRANCH  27  28
ATOM     28  O2  UNK     1       2.312  37.127 234.808  1.00  0.00    -0.399 OA
ATOM     29  H25 UNK     1       3.195  37.530 234.772  1.00  0.00     0.209 HD
ENDBRANCH  27  28
ENDBRANCH  26  27
ENDBRANCH  25  26
ENDBRANCH  24  25
ENDBRANCH  23  24
ENDBRANCH   2  23
TORSDOF 6
ENDMDL
MODEL 6
REMARK VINA RESULT:      -5.9      6.158      8.512
REMARK  6 active torsions:
REMARK  status: ('A' for Active; 'I' for Inactive)
REMARK    1  A    between atoms: O1_2  and  C7_14 
REMARK    2  A    between atoms: O1_2  and  C14_21 
REMARK    3  A    between atoms: O2_3  and  C19_26 
REMARK    4  A    between atoms: N1_4  and  C5_12 
REMARK    5  A    between atoms: C5_12  and  C7_14 
REMARK    6  A    between atoms: C14_21  and  C19_26 
ROOT
ATOM      1  S1  UNK     1       2.565  33.104 237.205  1.00  0.00    -0.087 SA
ATOM      2  N1  UNK     1      -1.532  35.056 231.938  1.00  0.00     0.093 N 
ATOM      3  N2  UNK     1       0.244  34.942 234.160  1.00  0.00    -0.363 N 
ATOM      4  N3  UNK     1       1.912  35.696 235.544  1.00  0.00    -0.341 N 
ATOM      5  H3  UNK     1       2.307  36.151 234.722  1.00  0.00     0.167 HD
ATOM      6  C1  UNK     1      -1.001  36.290 232.536  1.00  0.00     0.292 C 
ATOM      7  C2  UNK     1      -1.686  34.016 232.966  1.00  0.00     0.292 C 
ATOM      8  C3  UNK     1       0.354  36.037 233.199  1.00  0.00     0.154 C 
ATOM      9  C4  UNK     1      -0.347  33.712 233.640  1.00  0.00     0.154 C 
ATOM     10  C6  UNK     1       0.815  35.002 235.385  1.00  0.00     0.115 C 
ATOM     11  C8  UNK     1       0.117  34.241 236.466  1.00  0.00     0.025 A 
ATOM     12  C9  UNK     1       0.795  33.330 237.290  1.00  0.00     0.019 A 
ATOM     13  C10 UNK     1      -1.269  34.408 236.599  1.00  0.00     0.016 A 
ATOM     14  C11 UNK     1       2.585  35.858 236.767  1.00  0.00     0.051 A 
ATOM     15  C12 UNK     1       3.016  34.793 237.577  1.00  0.00     0.032 A 
ATOM     16  C13 UNK     1       0.072  32.590 238.236  1.00  0.00     0.020 A 
ATOM     17  C15 UNK     1      -1.975  33.672 237.549  1.00  0.00     0.001 A 
ATOM     18  C16 UNK     1      -1.307  32.762 238.363  1.00  0.00     0.001 A 
ATOM     19  C17 UNK     1       2.937  37.165 237.137  1.00  0.00     0.031 A 
ATOM     20  C18 UNK     1       3.771  35.044 238.732  1.00  0.00     0.021 A 
ATOM     21  C20 UNK     1       3.681  37.412 238.291  1.00  0.00     0.002 A 
ATOM     22  C21 UNK     1       4.100  36.350 239.087  1.00  0.00     0.002 A 
ENDROOT
BRANCH   2  23
ATOM     23  C5  UNK     1      -2.808  35.314 231.274  1.00  0.00     0.298 C 
BRANCH  23  24
ATOM     24  C7  UNK     1      -2.835  36.720 230.693  1.00  0.00     0.198 C 
BRANCH  24  25
ATOM     25  O1  UNK     1      -3.020  36.629 229.286  1.00  0.00    -0.387 OA
BRANCH  25  26
ATOM     26  C14 UNK     1      -2.791  37.878 228.648  1.00  0.00     0.193 C 
BRANCH  26  27
ATOM     27  C19 UNK     1      -1.385  38.345 228.966  1.00  0.00     0.190 C 
BRANCH  27  28
ATOM     28  O2  UNK     1      -1.423  39.719 229.332  1.00  0.00    -0.399 OA
ATOM     29  H25 UNK     1      -2.249  40.094 228.980  1.00  0.00     0.209 HD
ENDBRANCH  27  28
ENDBRANCH  26  27
ENDBRANCH  25  26
ENDBRANCH  24  25
ENDBRANCH  23  24
ENDBRANCH   2  23
TORSDOF 6
ENDMDL
MODEL 7
REMARK VINA RESULT:      -5.8      9.348     11.867
REMARK  6 active torsions:
REMARK  status: ('A' for Active; 'I' for Inactive)
REMARK    1  A    between atoms: O1_2  and  C7_14 
REMARK    2  A    between atoms: O1_2  and  C14_21 
REMARK    3  A    between atoms: O2_3  and  C19_26 
REMARK    4  A    between atoms: N1_4  and  C5_12 
REMARK    5  A    between atoms: C5_12  and  C7_14 
REMARK    6  A    between atoms: C14_21  and  C19_26 
ROOT
ATOM      1  S1  UNK     1       1.729  37.281 235.828  1.00  0.00    -0.087 SA
ATOM      2  N1  UNK     1       3.709  30.619 235.995  1.00  0.00     0.093 N 
ATOM      3  N2  UNK     1       2.290  33.082 236.138  1.00  0.00    -0.363 N 
ATOM      4  N3  UNK     1       0.432  34.429 236.126  1.00  0.00    -0.341 N 
ATOM      5  H3  UNK     1       0.017  33.749 235.490  1.00  0.00     0.167 HD
ATOM      6  C1  UNK     1       2.307  30.650 236.436  1.00  0.00     0.292 C 
ATOM      7  C2  UNK     1       4.397  31.856 236.392  1.00  0.00     0.292 C 
ATOM      8  C3  UNK     1       1.572  31.848 235.833  1.00  0.00     0.154 C 
ATOM      9  C4  UNK     1       3.709  33.082 235.789  1.00  0.00     0.154 C 
ATOM     10  C6  UNK     1       1.652  34.204 236.542  1.00  0.00     0.115 C 
ATOM     11  C8  UNK     1       2.429  35.107 237.446  1.00  0.00     0.025 A 
ATOM     12  C9  UNK     1       2.571  36.478 237.183  1.00  0.00     0.019 A 
ATOM     13  C10 UNK     1       3.083  34.533 238.544  1.00  0.00     0.016 A 
ATOM     14  C11 UNK     1      -0.346  35.539 236.493  1.00  0.00     0.051 A 
ATOM     15  C12 UNK     1       0.065  36.875 236.339  1.00  0.00     0.032 A 
ATOM     16  C13 UNK     1       3.375  37.258 238.025  1.00  0.00     0.020 A 
ATOM     17  C15 UNK     1       3.873  35.321 239.379  1.00  0.00     0.001 A 
ATOM     18  C16 UNK     1       4.023  36.681 239.118  1.00  0.00     0.001 A 
ATOM     19  C17 UNK     1      -1.652  35.288 236.939  1.00  0.00     0.031 A 
ATOM     20  C18 UNK     1      -0.817  37.924 236.637  1.00  0.00     0.021 A 
ATOM     21  C20 UNK     1      -2.525  36.334 237.242  1.00  0.00     0.002 A 
ATOM     22  C21 UNK     1      -2.107  37.653 237.088  1.00  0.00     0.002 A 
ENDROOT
BRANCH   2  23
ATOM     23  C5  UNK     1       4.395  29.451 236.545  1.00  0.00     0.298 C 
BRANCH  23  24
ATOM     24  C7  UNK     1       4.286  29.430 238.062  1.00  0.00     0.198 C 
BRANCH  24  25
ATOM     25  O1  UNK     1       5.589  29.279 238.611  1.00  0.00    -0.387 OA
BRANCH  25  26
ATOM     26  C14 UNK     1       5.729  30.000 239.828  1.00  0.00     0.193 C 
BRANCH  26  27
ATOM     27  C19 UNK     1       6.037  31.450 239.510  1.00  0.00     0.190 C 
BRANCH  27  28
ATOM     28  O2  UNK     1       7.390  31.554 239.081  1.00  0.00    -0.399 OA
ATOM     29  H25 UNK     1       7.618  32.499 239.054  1.00  0.00     0.209 HD
ENDBRANCH  27  28
ENDBRANCH  26  27
ENDBRANCH  25  26
ENDBRANCH  24  25
ENDBRANCH  23  24
ENDBRANCH   2  23
TORSDOF 6
ENDMDL
MODEL 8
REMARK VINA RESULT:      -5.7      5.174      7.111
REMARK  6 active torsions:
REMARK  status: ('A' for Active; 'I' for Inactive)
REMARK    1  A    between atoms: O1_2  and  C7_14 
REMARK    2  A    between atoms: O1_2  and  C14_21 
REMARK    3  A    between atoms: O2_3  and  C19_26 
REMARK    4  A    between atoms: N1_4  and  C5_12 
REMARK    5  A    between atoms: C5_12  and  C7_14 
REMARK    6  A    between atoms: C14_21  and  C19_26 
ROOT
ATOM      1  S1  UNK     1       1.510  34.965 235.206  1.00  0.00    -0.087 SA
ATOM      2  N1  UNK     1       0.444  35.016 228.336  1.00  0.00     0.093 N 
ATOM      3  N2  UNK     1       0.185  35.020 231.171  1.00  0.00    -0.363 N 
ATOM      4  N3  UNK     1      -0.846  35.445 233.176  1.00  0.00    -0.341 N 
ATOM      5  H3  UNK     1      -1.260  36.259 232.722  1.00  0.00     0.167 HD
ATOM      6  C1  UNK     1      -0.884  35.036 228.966  1.00  0.00     0.292 C 
ATOM      7  C2  UNK     1       1.396  34.273 229.175  1.00  0.00     0.292 C 
ATOM      8  C3  UNK     1      -0.822  35.685 230.350  1.00  0.00     0.154 C 
ATOM      9  C4  UNK     1       1.509  34.904 230.564  1.00  0.00     0.154 C 
ATOM     10  C6  UNK     1      -0.040  34.699 232.466  1.00  0.00     0.115 C 
ATOM     11  C8  UNK     1       0.682  33.493 232.974  1.00  0.00     0.025 A 
ATOM     12  C9  UNK     1       1.446  33.525 234.151  1.00  0.00     0.019 A 
ATOM     13  C10 UNK     1       0.637  32.325 232.200  1.00  0.00     0.016 A 
ATOM     14  C11 UNK     1      -1.183  35.206 234.519  1.00  0.00     0.051 A 
ATOM     15  C12 UNK     1      -0.241  35.055 235.552  1.00  0.00     0.032 A 
ATOM     16  C13 UNK     1       2.162  32.383 234.535  1.00  0.00     0.020 A 
ATOM     17  C15 UNK     1       1.347  31.194 232.598  1.00  0.00     0.001 A 
ATOM     18  C16 UNK     1       2.111  31.223 233.761  1.00  0.00     0.001 A 
ATOM     19  C17 UNK     1      -2.545  35.226 234.853  1.00  0.00     0.031 A 
ATOM     20  C18 UNK     1      -0.667  34.920 236.882  1.00  0.00     0.021 A 
ATOM     21  C20 UNK     1      -2.966  35.084 236.175  1.00  0.00     0.002 A 
ATOM     22  C21 UNK     1      -2.026  34.933 237.190  1.00  0.00     0.002 A 
ENDROOT
BRANCH   2  23
ATOM     23  C5  UNK     1       0.370  34.429 226.999  1.00  0.00     0.298 C 
BRANCH  23  24
ATOM     24  C7  UNK     1       0.385  32.910 227.079  1.00  0.00     0.198 C 
BRANCH  24  25
ATOM     25  O1  UNK     1       1.229  32.407 226.051  1.00  0.00    -0.387 OA
BRANCH  25  26
ATOM     26  C14 UNK     1       2.543  32.158 226.531  1.00  0.00     0.193 C 
BRANCH  26  27
ATOM     27  C19 UNK     1       2.866  30.689 226.346  1.00  0.00     0.190 C 
BRANCH  27  28
ATOM     28  O2  UNK     1       2.388  29.963 227.472  1.00  0.00    -0.399 OA
ATOM     29  H25 UNK     1       1.423  30.074 227.505  1.00  0.00     0.209 HD
ENDBRANCH  27  28
ENDBRANCH  26  27
ENDBRANCH  25  26
ENDBRANCH  24  25
ENDBRANCH  23  24
ENDBRANCH   2  23
TORSDOF 6
ENDMDL
MODEL 9
REMARK VINA RESULT:      -5.7      5.784      7.509
REMARK  6 active torsions:
REMARK  status: ('A' for Active; 'I' for Inactive)
REMARK    1  A    between atoms: O1_2  and  C7_14 
REMARK    2  A    between atoms: O1_2  and  C14_21 
REMARK    3  A    between atoms: O2_3  and  C19_26 
REMARK    4  A    between atoms: N1_4  and  C5_12 
REMARK    5  A    between atoms: C5_12  and  C7_14 
REMARK    6  A    between atoms: C14_21  and  C19_26 
ROOT
ATOM      1  S1  UNK     1      -3.128  32.641 231.436  1.00  0.00    -0.087 SA
ATOM      2  N1  UNK     1       0.069  36.611 236.164  1.00  0.00     0.093 N 
ATOM      3  N2  UNK     1      -1.814  35.215 234.548  1.00  0.00    -0.363 N 
ATOM      4  N3  UNK     1      -3.825  34.222 234.067  1.00  0.00    -0.341 N 
ATOM      5  H3  UNK     1      -3.883  33.993 235.059  1.00  0.00     0.167 HD
ATOM      6  C1  UNK     1      -1.375  36.761 236.398  1.00  0.00     0.292 C 
ATOM      7  C2  UNK     1       0.333  36.382 234.736  1.00  0.00     0.292 C 
ATOM      8  C3  UNK     1      -2.135  35.515 235.941  1.00  0.00     0.154 C 
ATOM      9  C4  UNK     1      -0.389  35.128 234.241  1.00  0.00     0.154 C 
ATOM     10  C6  UNK     1      -2.764  34.863 233.652  1.00  0.00     0.115 C 
ATOM     11  C8  UNK     1      -2.495  35.248 232.232  1.00  0.00     0.025 A 
ATOM     12  C9  UNK     1      -2.573  34.320 231.184  1.00  0.00     0.019 A 
ATOM     13  C10 UNK     1      -2.088  36.564 231.974  1.00  0.00     0.016 A 
ATOM     14  C11 UNK     1      -4.893  33.825 233.244  1.00  0.00     0.051 A 
ATOM     15  C12 UNK     1      -4.745  33.044 232.083  1.00  0.00     0.032 A 
ATOM     16  C13 UNK     1      -2.235  34.723 229.884  1.00  0.00     0.020 A 
ATOM     17  C15 UNK     1      -1.762  36.955 230.676  1.00  0.00     0.001 A 
ATOM     18  C16 UNK     1      -1.832  36.035 229.633  1.00  0.00     0.001 A 
ATOM     19  C17 UNK     1      -6.189  34.143 233.675  1.00  0.00     0.031 A 
ATOM     20  C18 UNK     1      -5.875  32.609 231.377  1.00  0.00     0.021 A 
ATOM     21  C20 UNK     1      -7.311  33.714 232.966  1.00  0.00     0.002 A 
ATOM     22  C21 UNK     1      -7.153  32.945 231.817  1.00  0.00     0.002 A 
ENDROOT
BRANCH   2  23
ATOM     23  C5  UNK     1       0.792  37.790 236.638  1.00  0.00     0.298 C 
BRANCH  23  24
ATOM     24  C7  UNK     1       2.275  37.487 236.782  1.00  0.00     0.198 C 
BRANCH  24  25
ATOM     25  O1  UNK     1       2.596  37.420 238.166  1.00  0.00    -0.387 OA
BRANCH  25  26
ATOM     26  C14 UNK     1       3.973  37.134 238.370  1.00  0.00     0.193 C 
BRANCH  26  27
ATOM     27  C19 UNK     1       4.097  35.913 239.259  1.00  0.00     0.190 C 
BRANCH  27  28
ATOM     28  O2  UNK     1       3.913  36.305 240.614  1.00  0.00    -0.399 OA
ATOM     29  H25 UNK     1       4.580  36.982 240.818  1.00  0.00     0.209 HD
ENDBRANCH  27  28
ENDBRANCH  26  27
ENDBRANCH  25  26
ENDBRANCH  24  25
ENDBRANCH  23  24
ENDBRANCH   2  23
TORSDOF 6
ENDMDL
