MODEL 1
REMARK VINA RESULT:      -8.3      0.000      0.000
REMARK  4 active torsions:
REMARK  status: ('A' for Active; 'I' for Inactive)
REMARK    1  A    between atoms: N1_4  and  C6_15 
REMARK    2  A    between atoms: C1_10  and  C7_16 
REMARK    3  A    between atoms: C6_15  and  C8_17 
REMARK    4  A    between atoms: C8_17  and  C9_18 
ROOT
ATOM      1  N1  UNK     1      -0.085  35.528 230.908  1.00  0.00     0.088 N 
ATOM      2  C1  UNK     1       0.435  35.752 233.787  1.00  0.00     0.042 C 
ATOM      3  C2  UNK     1       1.561  35.570 232.756  1.00  0.00     0.041 C 
ATOM      4  C3  UNK     1      -0.787  36.401 233.115  1.00  0.00     0.041 C 
ATOM      5  C4  UNK     1       1.061  34.833 231.511  1.00  0.00     0.273 C 
ATOM      6  C5  UNK     1      -1.201  35.633 231.857  1.00  0.00     0.273 C 
ENDROOT
BRANCH   1   7
ATOM      7  C6  UNK     1      -0.514  34.843 229.688  1.00  0.00     0.277 C 
BRANCH   7   8
ATOM      8  C8  UNK     1      -1.198  35.830 228.754  1.00  0.00     0.076 C 
BRANCH   8   9
ATOM      9  C9  UNK     1      -0.243  36.903 228.315  1.00  0.00     0.034 A 
ATOM     10  C16 UNK     1      -0.719  38.311 228.488  1.00  0.00     0.257 A 
ATOM     11  O2  UNK     1      -1.835  38.532 228.958  1.00  0.00    -0.267 OA
ATOM     12  N2  UNK     1       0.178  39.297 228.071  1.00  0.00    -0.303 N 
ATOM     13  C11 UNK     1      -0.285  40.687 228.142  1.00  0.00     0.133 C 
ATOM     14  C13 UNK     1       1.389  38.950 227.500  1.00  0.00     0.086 A 
ATOM     15  C12 UNK     1       0.813  41.728 228.035  1.00  0.00     0.021 C 
ATOM     16  C14 UNK     1       1.697  41.397 226.851  1.00  0.00     0.009 C 
ATOM     17  C15 UNK     1       2.350  40.050 227.085  1.00  0.00     0.077 C 
ATOM     18  N4  UNK     1       1.795  37.730 227.344  1.00  0.00    -0.349 N 
ATOM     19  C17 UNK     1       0.971  36.714 227.760  1.00  0.00     0.018 A 
ATOM     20  H4  UNK     1       2.703  37.529 226.924  1.00  0.00     0.167 HD
ATOM     21  C20 UNK     1       1.574  35.349 227.561  1.00  0.00     0.069 C 
ENDBRANCH   8   9
ENDBRANCH   7   8
ENDBRANCH   1   7
BRANCH   2  22
ATOM     22  C7  UNK     1       0.888  36.498 235.021  1.00  0.00     0.050 A 
ATOM     23  N3  UNK     1       0.126  37.475 235.509  1.00  0.00    -0.264 N 
ATOM     24  O1  UNK     1       0.814  37.944 236.620  1.00  0.00    -0.237 OA
ATOM     25  H3  UNK     1      -0.768  37.805 235.146  1.00  0.00     0.194 HD
ATOM     26  C18 UNK     1       1.969  37.240 236.768  1.00  0.00     0.114 A 
ATOM     27  C10 UNK     1       2.062  36.295 235.761  1.00  0.00     0.025 A 
ATOM     28  C21 UNK     1       2.924  37.421 237.765  1.00  0.00     0.082 A 
ATOM     29  C19 UNK     1       3.182  35.452 235.719  1.00  0.00     0.019 A 
ATOM     30  C22 UNK     1       4.164  35.605 236.709  1.00  0.00     0.043 A 
ATOM     31  C23 UNK     1       4.036  36.572 237.711  1.00  0.00     0.119 A 
ATOM     32  F1  UNK     1       4.995  36.689 238.638  1.00  0.00    -0.206 F 
ENDBRANCH   2  22
TORSDOF 4
ENDMDL
MODEL 2
REMARK VINA RESULT:      -8.2      3.782      9.174
REMARK  4 active torsions:
REMARK  status: ('A' for Active; 'I' for Inactive)
REMARK    1  A    between atoms: N1_4  and  C6_15 
REMARK    2  A    between atoms: C1_10  and  C7_16 
REMARK    3  A    between atoms: C6_15  and  C8_17 
REMARK    4  A    between atoms: C8_17  and  C9_18 
ROOT
ATOM      1  N1  UNK     1      -0.904  34.948 232.510  1.00  0.00     0.088 N 
ATOM      2  C1  UNK     1      -1.626  36.853 230.398  1.00  0.00     0.042 C 
ATOM      3  C2  UNK     1      -0.748  35.618 230.132  1.00  0.00     0.041 C 
ATOM      4  C3  UNK     1      -2.517  36.604 231.625  1.00  0.00     0.041 C 
ATOM      5  C4  UNK     1       0.015  35.198 231.390  1.00  0.00     0.273 C 
ATOM      6  C5  UNK     1      -1.689  36.148 232.829  1.00  0.00     0.273 C 
ENDROOT
BRANCH   1   7
ATOM      7  C6  UNK     1      -0.164  34.493 233.687  1.00  0.00     0.277 C 
BRANCH   7   8
ATOM      8  C8  UNK     1       1.326  34.727 233.483  1.00  0.00     0.076 C 
BRANCH   8   9
ATOM      9  C9  UNK     1       2.048  34.759 234.800  1.00  0.00     0.034 A 
ATOM     10  C16 UNK     1       2.240  36.114 235.405  1.00  0.00     0.257 A 
ATOM     11  O2  UNK     1       1.823  37.115 234.822  1.00  0.00    -0.267 OA
ATOM     12  N2  UNK     1       2.917  36.129 236.627  1.00  0.00    -0.303 N 
ATOM     13  C11 UNK     1       3.203  37.444 237.210  1.00  0.00     0.133 C 
ATOM     14  C13 UNK     1       3.400  34.955 237.178  1.00  0.00     0.086 A 
ATOM     15  C12 UNK     1       3.598  37.416 238.674  1.00  0.00     0.021 C 
ATOM     16  C14 UNK     1       4.671  36.367 238.879  1.00  0.00     0.009 C 
ATOM     17  C15 UNK     1       4.106  35.008 238.520  1.00  0.00     0.077 C 
ATOM     18  N4  UNK     1       3.240  33.785 236.647  1.00  0.00    -0.349 N 
ATOM     19  C17 UNK     1       2.557  33.699 235.458  1.00  0.00     0.018 A 
ATOM     20  H4  UNK     1       3.610  32.949 237.100  1.00  0.00     0.167 HD
ATOM     21  C20 UNK     1       2.404  32.283 234.969  1.00  0.00     0.069 C 
ENDBRANCH   8   9
ENDBRANCH   7   8
ENDBRANCH   1   7
BRANCH   2  22
ATOM     22  C7  UNK     1      -2.414  37.281 229.180  1.00  0.00     0.050 A 
ATOM     23  N3  UNK     1      -3.368  36.482 228.707  1.00  0.00    -0.264 N 
ATOM     24  O1  UNK     1      -3.886  37.156 227.609  1.00  0.00    -0.237 OA
ATOM     25  H3  UNK     1      -3.655  35.574 229.072  1.00  0.00     0.194 HD
ATOM     26  C18 UNK     1      -3.230  38.338 227.451  1.00  0.00     0.114 A 
ATOM     27  C10 UNK     1      -2.271  38.464 228.441  1.00  0.00     0.025 A 
ATOM     28  C21 UNK     1      -3.465  39.287 226.460  1.00  0.00     0.082 A 
ATOM     29  C19 UNK     1      -1.470  39.615 228.470  1.00  0.00     0.019 A 
ATOM     30  C22 UNK     1      -1.680  40.593 227.487  1.00  0.00     0.043 A 
ATOM     31  C23 UNK     1      -2.659  40.429 226.502  1.00  0.00     0.119 A 
ATOM     32  F1  UNK     1      -2.829  41.385 225.579  1.00  0.00    -0.206 F 
ENDBRANCH   2  22
TORSDOF 4
ENDMDL
MODEL 3
REMARK VINA RESULT:      -8.2      3.238      7.933
REMARK  4 active torsions:
REMARK  status: ('A' for Active; 'I' for Inactive)
REMARK    1  A    between atoms: N1_4  and  C6_15 
REMARK    2  A    between atoms: C1_10  and  C7_16 
REMARK    3  A    between atoms: C6_15  and  C8_17 
REMARK    4  A    between atoms: C8_17  and  C9_18 
ROOT
ATOM      1  N1  UNK     1      -1.479  35.013 230.751  1.00  0.00     0.088 N 
ATOM      2  C1  UNK     1      -1.535  37.298 228.910  1.00  0.00     0.042 C 
ATOM      3  C2  UNK     1      -2.648  37.039 229.940  1.00  0.00     0.041 C 
ATOM      4  C3  UNK     1      -0.223  36.654 229.388  1.00  0.00     0.041 C 
ATOM      5  C4  UNK     1      -2.762  35.549 230.272  1.00  0.00     0.273 C 
ATOM      6  C5  UNK     1      -0.425  35.178 229.741  1.00  0.00     0.273 C 
ENDROOT
BRANCH   1   7
ATOM      7  C6  UNK     1      -1.620  33.604 231.119  1.00  0.00     0.277 C 
BRANCH   7   8
ATOM      8  C8  UNK     1      -1.945  33.487 232.601  1.00  0.00     0.076 C 
BRANCH   8   9
ATOM      9  C9  UNK     1      -0.925  34.212 233.432  1.00  0.00     0.034 A 
ATOM     10  C16 UNK     1      -1.440  35.365 234.235  1.00  0.00     0.257 A 
ATOM     11  O2  UNK     1      -2.631  35.671 234.183  1.00  0.00    -0.267 OA
ATOM     12  N2  UNK     1      -0.479  36.032 234.998  1.00  0.00    -0.303 N 
ATOM     13  C11 UNK     1      -0.925  37.222 235.732  1.00  0.00     0.133 C 
ATOM     14  C13 UNK     1       0.850  35.651 234.948  1.00  0.00     0.086 A 
ATOM     15  C12 UNK     1       0.027  37.695 236.814  1.00  0.00     0.021 C 
ATOM     16  C14 UNK     1       1.428  37.769 236.244  1.00  0.00     0.009 C 
ATOM     17  C15 UNK     1       1.859  36.383 235.813  1.00  0.00     0.077 C 
ATOM     18  N4  UNK     1       1.293  34.658 234.245  1.00  0.00    -0.349 N 
ATOM     19  C17 UNK     1       0.393  33.942 233.493  1.00  0.00     0.018 A 
ATOM     20  H4  UNK     1       2.283  34.413 234.249  1.00  0.00     0.167 HD
ATOM     21  C20 UNK     1       1.028  32.792 232.756  1.00  0.00     0.069 C 
ENDBRANCH   8   9
ENDBRANCH   7   8
ENDBRANCH   1   7
BRANCH   2  22
ATOM     22  C7  UNK     1      -1.379  38.764 228.576  1.00  0.00     0.050 A 
ATOM     23  N3  UNK     1      -2.370  39.606 228.860  1.00  0.00    -0.264 N 
ATOM     24  O1  UNK     1      -1.917  40.848 228.435  1.00  0.00    -0.237 OA
ATOM     25  H3  UNK     1      -3.267  39.387 229.294  1.00  0.00     0.194 HD
ATOM     26  C18 UNK     1      -0.669  40.719 227.908  1.00  0.00     0.114 A 
ATOM     27  C10 UNK     1      -0.278  39.392 227.977  1.00  0.00     0.025 A 
ATOM     28  C21 UNK     1       0.113  41.740 227.376  1.00  0.00     0.082 A 
ATOM     29  C19 UNK     1       0.984  39.028 227.485  1.00  0.00     0.019 A 
ATOM     30  C22 UNK     1       1.799  40.032 226.943  1.00  0.00     0.043 A 
ATOM     31  C23 UNK     1       1.369  41.362 226.890  1.00  0.00     0.119 A 
ATOM     32  F1  UNK     1       2.176  42.294 226.364  1.00  0.00    -0.206 F 
ENDBRANCH   2  22
TORSDOF 4
ENDMDL
MODEL 4
REMARK VINA RESULT:      -8.0      2.312      3.144
REMARK  4 active torsions:
REMARK  status: ('A' for Active; 'I' for Inactive)
REMARK    1  A    between atoms: N1_4  and  C6_15 
REMARK    2  A    between atoms: C1_10  and  C7_16 
REMARK    3  A    between atoms: C6_15  and  C8_17 
REMARK    4  A    between atoms: C8_17  and  C9_18 
ROOT
ATOM      1  N1  UNK     1      -1.065  35.091 230.767  1.00  0.00     0.088 N 
ATOM      2  C1  UNK     1       0.773  35.487 233.021  1.00  0.00     0.042 C 
ATOM      3  C2  UNK     1      -0.756  35.520 233.185  1.00  0.00     0.041 C 
ATOM      4  C3  UNK     1       1.146  34.645 231.789  1.00  0.00     0.041 C 
ATOM      5  C4  UNK     1      -1.445  35.959 231.891  1.00  0.00     0.273 C 
ATOM      6  C5  UNK     1       0.387  35.116 230.545  1.00  0.00     0.273 C 
ENDROOT
BRANCH   1   7
ATOM      7  C6  UNK     1      -1.776  35.488 229.552  1.00  0.00     0.277 C 
BRANCH   7   8
ATOM      8  C8  UNK     1      -2.727  36.635 229.861  1.00  0.00     0.076 C 
BRANCH   8   9
ATOM      9  C9  UNK     1      -2.859  37.553 228.679  1.00  0.00     0.034 A 
ATOM     10  C16 UNK     1      -1.970  38.757 228.687  1.00  0.00     0.257 A 
ATOM     11  O2  UNK     1      -1.199  38.948 229.626  1.00  0.00    -0.267 OA
ATOM     12  N2  UNK     1      -2.109  39.604 227.584  1.00  0.00    -0.303 N 
ATOM     13  C11 UNK     1      -1.319  40.840 227.596  1.00  0.00     0.133 C 
ATOM     14  C13 UNK     1      -3.047  39.335 226.604  1.00  0.00     0.086 A 
ATOM     15  C12 UNK     1      -1.212  41.537 226.253  1.00  0.00     0.021 C 
ATOM     16  C14 UNK     1      -2.594  41.654 225.644  1.00  0.00     0.009 C 
ATOM     17  C15 UNK     1      -3.147  40.264 225.407  1.00  0.00     0.077 C 
ATOM     18  N4  UNK     1      -3.821  38.297 226.604  1.00  0.00    -0.349 N 
ATOM     19  C17 UNK     1      -3.714  37.410 227.647  1.00  0.00     0.018 A 
ATOM     20  H4  UNK     1      -4.490  38.142 225.851  1.00  0.00     0.167 HD
ATOM     21  C20 UNK     1      -4.638  36.228 227.509  1.00  0.00     0.069 C 
ENDBRANCH   8   9
ENDBRANCH   7   8
ENDBRANCH   1   7
BRANCH   2  22
ATOM     22  C7  UNK     1       1.485  35.034 234.275  1.00  0.00     0.050 A 
ATOM     23  N3  UNK     1       1.802  33.748 234.417  1.00  0.00    -0.264 N 
ATOM     24  O1  UNK     1       2.432  33.669 235.651  1.00  0.00    -0.237 OA
ATOM     25  H3  UNK     1       1.620  32.988 233.761  1.00  0.00     0.194 HD
ATOM     26  C18 UNK     1       2.476  34.906 236.218  1.00  0.00     0.114 A 
ATOM     27  C10 UNK     1       1.877  35.820 235.367  1.00  0.00     0.025 A 
ATOM     28  C21 UNK     1       3.028  35.229 237.454  1.00  0.00     0.082 A 
ATOM     29  C19 UNK     1       1.810  37.167 235.754  1.00  0.00     0.019 A 
ATOM     30  C22 UNK     1       2.357  37.529 236.993  1.00  0.00     0.043 A 
ATOM     31  C23 UNK     1       2.954  36.576 237.826  1.00  0.00     0.119 A 
ATOM     32  F1  UNK     1       3.465  36.960 239.003  1.00  0.00    -0.206 F 
ENDBRANCH   2  22
TORSDOF 4
ENDMDL
MODEL 5
REMARK VINA RESULT:      -8.0      3.249      8.232
REMARK  4 active torsions:
REMARK  status: ('A' for Active; 'I' for Inactive)
REMARK    1  A    between atoms: N1_4  and  C6_15 
REMARK    2  A    between atoms: C1_10  and  C7_16 
REMARK    3  A    between atoms: C6_15  and  C8_17 
REMARK    4  A    between atoms: C8_17  and  C9_18 
ROOT
ATOM      1  N1  UNK     1      -0.591  35.010 230.418  1.00  0.00     0.088 N 
ATOM      2  C1  UNK     1      -1.464  37.412 228.977  1.00  0.00     0.042 C 
ATOM      3  C2  UNK     1      -1.673  37.236 230.490  1.00  0.00     0.041 C 
ATOM      4  C3  UNK     1      -0.275  36.556 228.511  1.00  0.00     0.041 C 
ATOM      5  C4  UNK     1      -1.776  35.756 230.867  1.00  0.00     0.273 C 
ATOM      6  C5  UNK     1      -0.429  35.101 228.960  1.00  0.00     0.273 C 
ENDROOT
BRANCH   1   7
ATOM      7  C6  UNK     1      -0.679  33.611 230.837  1.00  0.00     0.277 C 
BRANCH   7   8
ATOM      8  C8  UNK     1       0.614  33.195 231.524  1.00  0.00     0.076 C 
BRANCH   8   9
ATOM      9  C9  UNK     1       0.616  33.623 232.964  1.00  0.00     0.034 A 
ATOM     10  C16 UNK     1       1.255  34.945 233.250  1.00  0.00     0.257 A 
ATOM     11  O2  UNK     1       1.743  35.606 232.333  1.00  0.00    -0.267 OA
ATOM     12  N2  UNK     1       1.254  35.327 234.593  1.00  0.00    -0.303 N 
ATOM     13  C11 UNK     1       1.948  36.575 234.928  1.00  0.00     0.133 C 
ATOM     14  C13 UNK     1       0.732  34.490 235.563  1.00  0.00     0.086 A 
ATOM     15  C12 UNK     1       1.621  37.136 236.299  1.00  0.00     0.021 C 
ATOM     16  C14 UNK     1       1.737  36.032 237.328  1.00  0.00     0.009 C 
ATOM     17  C15 UNK     1       0.724  34.952 237.008  1.00  0.00     0.077 C 
ATOM     18  N4  UNK     1       0.187  33.341 235.313  1.00  0.00    -0.349 N 
ATOM     19  C17 UNK     1       0.131  32.921 234.007  1.00  0.00     0.018 A 
ATOM     20  H4  UNK     1      -0.191  32.766 236.065  1.00  0.00     0.167 HD
ATOM     21  C20 UNK     1      -0.561  31.592 233.847  1.00  0.00     0.069 C 
ENDBRANCH   8   9
ENDBRANCH   7   8
ENDBRANCH   1   7
BRANCH   2  22
ATOM     22  C7  UNK     1      -1.334  38.863 228.571  1.00  0.00     0.050 A 
ATOM     23  N3  UNK     1      -2.355  39.692 228.780  1.00  0.00    -0.264 N 
ATOM     24  O1  UNK     1      -1.920  40.922 228.305  1.00  0.00    -0.237 OA
ATOM     25  H3  UNK     1      -3.260  39.471 229.197  1.00  0.00     0.194 HD
ATOM     26  C18 UNK     1      -0.652  40.800 227.824  1.00  0.00     0.114 A 
ATOM     27  C10 UNK     1      -0.231  39.489 227.974  1.00  0.00     0.025 A 
ATOM     28  C21 UNK     1       0.120  41.813 227.265  1.00  0.00     0.082 A 
ATOM     29  C19 UNK     1       1.055  39.134 227.542  1.00  0.00     0.019 A 
ATOM     30  C22 UNK     1       1.862  40.131 226.974  1.00  0.00     0.043 A 
ATOM     31  C23 UNK     1       1.401  41.444 226.838  1.00  0.00     0.119 A 
ATOM     32  F1  UNK     1       2.201  42.368 226.290  1.00  0.00    -0.206 F 
ENDBRANCH   2  22
TORSDOF 4
ENDMDL
MODEL 6
REMARK VINA RESULT:      -7.9      5.146      9.023
REMARK  4 active torsions:
REMARK  status: ('A' for Active; 'I' for Inactive)
REMARK    1  A    between atoms: N1_4  and  C6_15 
REMARK    2  A    between atoms: C1_10  and  C7_16 
REMARK    3  A    between atoms: C6_15  and  C8_17 
REMARK    4  A    between atoms: C8_17  and  C9_18 
ROOT
ATOM      1  N1  UNK     1      -3.180  35.775 228.928  1.00  0.00     0.088 N 
ATOM      2  C1  UNK     1      -1.762  38.206 228.095  1.00  0.00     0.042 C 
ATOM      3  C2  UNK     1      -3.285  38.170 228.311  1.00  0.00     0.041 C 
ATOM      4  C3  UNK     1      -1.091  37.104 228.931  1.00  0.00     0.041 C 
ATOM      5  C4  UNK     1      -3.847  36.767 228.072  1.00  0.00     0.273 C 
ATOM      6  C5  UNK     1      -1.734  35.740 228.670  1.00  0.00     0.273 C 
ENDROOT
BRANCH   1   7
ATOM      7  C6  UNK     1      -3.768  34.451 228.729  1.00  0.00     0.277 C 
BRANCH   7   8
ATOM      8  C8  UNK     1      -3.393  33.539 229.889  1.00  0.00     0.076 C 
BRANCH   8   9
ATOM      9  C9  UNK     1      -4.386  33.662 231.009  1.00  0.00     0.034 A 
ATOM     10  C16 UNK     1      -5.649  32.876 230.850  1.00  0.00     0.257 A 
ATOM     11  O2  UNK     1      -5.826  32.189 229.844  1.00  0.00    -0.267 OA
ATOM     12  N2  UNK     1      -6.565  33.004 231.897  1.00  0.00    -0.303 N 
ATOM     13  C11 UNK     1      -7.852  32.319 231.739  1.00  0.00     0.133 C 
ATOM     14  C13 UNK     1      -6.302  33.847 232.962  1.00  0.00     0.086 A 
ATOM     15  C12 UNK     1      -8.656  32.176 233.017  1.00  0.00     0.021 C 
ATOM     16  C14 UNK     1      -8.715  33.517 233.719  1.00  0.00     0.009 C 
ATOM     17  C15 UNK     1      -7.309  33.939 234.094  1.00  0.00     0.077 C 
ATOM     18  N4  UNK     1      -5.212  34.534 233.092  1.00  0.00    -0.349 N 
ATOM     19  C17 UNK     1      -4.258  34.429 232.110  1.00  0.00     0.018 A 
ATOM     20  H4  UNK     1      -5.064  35.135 233.903  1.00  0.00     0.167 HD
ATOM     21  C20 UNK     1      -3.024  35.243 232.400  1.00  0.00     0.069 C 
ENDBRANCH   8   9
ENDBRANCH   7   8
ENDBRANCH   1   7
BRANCH   2  22
ATOM     22  C7  UNK     1      -1.169  39.574 228.346  1.00  0.00     0.050 A 
ATOM     23  N3  UNK     1      -1.926  40.521 228.897  1.00  0.00    -0.264 N 
ATOM     24  O1  UNK     1      -1.097  41.632 228.989  1.00  0.00    -0.237 OA
ATOM     25  H3  UNK     1      -2.901  40.447 229.187  1.00  0.00     0.194 HD
ATOM     26  C18 UNK     1       0.131  41.323 228.491  1.00  0.00     0.114 A 
ATOM     27  C10 UNK     1       0.134  40.006 228.064  1.00  0.00     0.025 A 
ATOM     28  C21 UNK     1       1.228  42.176 228.411  1.00  0.00     0.082 A 
ATOM     29  C19 UNK     1       1.308  39.472 227.511  1.00  0.00     0.019 A 
ATOM     30  C22 UNK     1       2.433  40.304 227.416  1.00  0.00     0.043 A 
ATOM     31  C23 UNK     1       2.391  41.630 227.858  1.00  0.00     0.119 A 
ATOM     32  F1  UNK     1       3.487  42.394 227.749  1.00  0.00    -0.206 F 
ENDBRANCH   2  22
TORSDOF 4
ENDMDL
MODEL 7
REMARK VINA RESULT:      -7.8      2.994      4.403
REMARK  4 active torsions:
REMARK  status: ('A' for Active; 'I' for Inactive)
REMARK    1  A    between atoms: N1_4  and  C6_15 
REMARK    2  A    between atoms: C1_10  and  C7_16 
REMARK    3  A    between atoms: C6_15  and  C8_17 
REMARK    4  A    between atoms: C8_17  and  C9_18 
ROOT
ATOM      1  N1  UNK     1      -0.142  34.927 230.673  1.00  0.00     0.088 N 
ATOM      2  C1  UNK     1       0.411  35.311 233.529  1.00  0.00     0.042 C 
ATOM      3  C2  UNK     1       1.501  35.442 232.452  1.00  0.00     0.041 C 
ATOM      4  C3  UNK     1      -0.969  35.588 232.910  1.00  0.00     0.041 C 
ATOM      5  C4  UNK     1       1.176  34.584 231.226  1.00  0.00     0.273 C 
ATOM      6  C5  UNK     1      -1.204  34.725 231.668  1.00  0.00     0.273 C 
ENDROOT
BRANCH   1   7
ATOM      7  C6  UNK     1      -0.411  34.140 229.469  1.00  0.00     0.277 C 
BRANCH   7   8
ATOM      8  C8  UNK     1       0.828  33.343 229.085  1.00  0.00     0.076 C 
BRANCH   8   9
ATOM      9  C9  UNK     1       1.179  33.564 227.641  1.00  0.00     0.034 A 
ATOM     10  C16 UNK     1       0.695  32.519 226.686  1.00  0.00     0.257 A 
ATOM     11  O2  UNK     1       0.059  31.550 227.100  1.00  0.00    -0.267 OA
ATOM     12  N2  UNK     1       1.034  32.735 225.348  1.00  0.00    -0.303 N 
ATOM     13  C11 UNK     1       0.655  31.690 224.391  1.00  0.00     0.133 C 
ATOM     14  C13 UNK     1       1.805  33.825 224.984  1.00  0.00     0.086 A 
ATOM     15  C12 UNK     1       0.706  32.113 222.935  1.00  0.00     0.021 C 
ATOM     16  C14 UNK     1       2.030  32.794 222.663  1.00  0.00     0.009 C 
ATOM     17  C15 UNK     1       2.128  34.041 223.517  1.00  0.00     0.077 C 
ATOM     18  N4  UNK     1       2.229  34.723 225.815  1.00  0.00    -0.349 N 
ATOM     19  C17 UNK     1       1.905  34.583 227.142  1.00  0.00     0.018 A 
ATOM     20  H4  UNK     1       2.788  35.513 225.493  1.00  0.00     0.167 HD
ATOM     21  C20 UNK     1       2.423  35.712 227.995  1.00  0.00     0.069 C 
ENDBRANCH   8   9
ENDBRANCH   7   8
ENDBRANCH   1   7
BRANCH   2  22
ATOM     22  C7  UNK     1       0.688  36.164 234.746  1.00  0.00     0.050 A 
ATOM     23  N3  UNK     1      -0.210  37.073 235.122  1.00  0.00    -0.264 N 
ATOM     24  O1  UNK     1       0.339  37.672 236.248  1.00  0.00    -0.237 OA
ATOM     25  H3  UNK     1      -1.104  37.284 234.679  1.00  0.00     0.194 HD
ATOM     26  C18 UNK     1       1.548  37.109 236.518  1.00  0.00     0.114 A 
ATOM     27  C10 UNK     1       1.817  36.130 235.576  1.00  0.00     0.025 A 
ATOM     28  C21 UNK     1       2.401  37.444 237.566  1.00  0.00     0.082 A 
ATOM     29  C19 UNK     1       3.021  35.415 235.661  1.00  0.00     0.019 A 
ATOM     30  C22 UNK     1       3.904  35.726 236.706  1.00  0.00     0.043 A 
ATOM     31  C23 UNK     1       3.597  36.723 237.638  1.00  0.00     0.119 A 
ATOM     32  F1  UNK     1       4.466  36.992 238.622  1.00  0.00    -0.206 F 
ENDBRANCH   2  22
TORSDOF 4
ENDMDL
MODEL 8
REMARK VINA RESULT:      -7.6      4.156      9.106
REMARK  4 active torsions:
REMARK  status: ('A' for Active; 'I' for Inactive)
REMARK    1  A    between atoms: N1_4  and  C6_15 
REMARK    2  A    between atoms: C1_10  and  C7_16 
REMARK    3  A    between atoms: C6_15  and  C8_17 
REMARK    4  A    between atoms: C8_17  and  C9_18 
ROOT
ATOM      1  N1  UNK     1      -1.210  34.447 231.493  1.00  0.00     0.088 N 
ATOM      2  C1  UNK     1      -1.648  36.972 230.064  1.00  0.00     0.042 C 
ATOM      3  C2  UNK     1      -0.791  35.834 229.486  1.00  0.00     0.041 C 
ATOM      4  C3  UNK     1      -2.668  36.401 231.063  1.00  0.00     0.041 C 
ATOM      5  C4  UNK     1      -0.174  34.983 230.598  1.00  0.00     0.273 C 
ATOM      6  C5  UNK     1      -1.982  35.530 232.118  1.00  0.00     0.273 C 
ENDROOT
BRANCH   1   7
ATOM      7  C6  UNK     1      -0.609  33.591 232.516  1.00  0.00     0.277 C 
BRANCH   7   8
ATOM      8  C8  UNK     1       0.899  33.795 232.540  1.00  0.00     0.076 C 
BRANCH   8   9
ATOM      9  C9  UNK     1       1.374  34.107 233.930  1.00  0.00     0.034 A 
ATOM     10  C16 UNK     1       1.353  35.552 234.318  1.00  0.00     0.257 A 
ATOM     11  O2  UNK     1       0.970  36.401 233.514  1.00  0.00    -0.267 OA
ATOM     12  N2  UNK     1       1.803  35.826 235.612  1.00  0.00    -0.303 N 
ATOM     13  C11 UNK     1       1.881  37.239 236.000  1.00  0.00     0.133 C 
ATOM     14  C13 UNK     1       2.271  34.810 236.425  1.00  0.00     0.086 A 
ATOM     15  C12 UNK     1       2.015  37.480 237.492  1.00  0.00     0.021 C 
ATOM     16  C14 UNK     1       3.113  36.593 238.041  1.00  0.00     0.009 C 
ATOM     17  C15 UNK     1       2.724  35.144 237.834  1.00  0.00     0.077 C 
ATOM     18  N4  UNK     1       2.295  33.560 236.083  1.00  0.00    -0.349 N 
ATOM     19  C17 UNK     1       1.840  33.221 234.833  1.00  0.00     0.018 A 
ATOM     20  H4  UNK     1       2.643  32.848 236.725  1.00  0.00     0.167 HD
ATOM     21  C20 UNK     1       1.883  31.738 234.575  1.00  0.00     0.069 C 
ENDBRANCH   8   9
ENDBRANCH   7   8
ENDBRANCH   1   7
BRANCH   2  22
ATOM     22  C7  UNK     1      -2.294  37.819 228.990  1.00  0.00     0.050 A 
ATOM     23  N3  UNK     1      -1.924  39.092 228.854  1.00  0.00    -0.264 N 
ATOM     24  O1  UNK     1      -2.691  39.576 227.802  1.00  0.00    -0.237 OA
ATOM     25  H3  UNK     1      -1.231  39.599 229.403  1.00  0.00     0.194 HD
ATOM     26  C18 UNK     1      -3.499  38.584 227.336  1.00  0.00     0.114 A 
ATOM     27  C10 UNK     1      -3.279  37.431 228.071  1.00  0.00     0.025 A 
ATOM     28  C21 UNK     1      -4.411  38.685 226.290  1.00  0.00     0.082 A 
ATOM     29  C19 UNK     1      -4.011  36.276 227.760  1.00  0.00     0.019 A 
ATOM     30  C22 UNK     1      -4.938  36.341 226.710  1.00  0.00     0.043 A 
ATOM     31  C23 UNK     1      -5.133  37.525 225.991  1.00  0.00     0.119 A 
ATOM     32  F1  UNK     1      -6.030  37.549 224.995  1.00  0.00    -0.206 F 
ENDBRANCH   2  22
TORSDOF 4
ENDMDL
MODEL 9
REMARK VINA RESULT:      -7.6      3.764      8.817
REMARK  4 active torsions:
REMARK  status: ('A' for Active; 'I' for Inactive)
REMARK    1  A    between atoms: N1_4  and  C6_15 
REMARK    2  A    between atoms: C1_10  and  C7_16 
REMARK    3  A    between atoms: C6_15  and  C8_17 
REMARK    4  A    between atoms: C8_17  and  C9_18 
ROOT
ATOM      1  N1  UNK     1      -0.325  35.075 230.419  1.00  0.00     0.088 N 
ATOM      2  C1  UNK     1      -1.276  37.453 228.986  1.00  0.00     0.042 C 
ATOM      3  C2  UNK     1      -1.489  37.259 230.496  1.00  0.00     0.041 C 
ATOM      4  C3  UNK     1      -0.052  36.644 228.524  1.00  0.00     0.041 C 
ATOM      5  C4  UNK     1      -1.540  35.774 230.864  1.00  0.00     0.273 C 
ATOM      6  C5  UNK     1      -0.156  35.182 228.963  1.00  0.00     0.273 C 
ENDROOT
BRANCH   1   7
ATOM      7  C6  UNK     1      -0.365  33.671 230.828  1.00  0.00     0.277 C 
BRANCH   7   8
ATOM      8  C8  UNK     1       0.771  33.384 231.800  1.00  0.00     0.076 C 
BRANCH   8   9
ATOM      9  C9  UNK     1       0.355  33.680 233.212  1.00  0.00     0.034 A 
ATOM     10  C16 UNK     1      -0.511  32.649 233.866  1.00  0.00     0.257 A 
ATOM     11  O2  UNK     1      -0.844  31.640 233.246  1.00  0.00    -0.267 OA
ATOM     12  N2  UNK     1      -0.894  32.941 235.177  1.00  0.00    -0.303 N 
ATOM     13  C11 UNK     1      -1.814  31.999 235.824  1.00  0.00     0.133 C 
ATOM     14  C13 UNK     1      -0.517  34.131 235.773  1.00  0.00     0.086 A 
ATOM     15  C12 UNK     1      -1.914  32.142 237.331  1.00  0.00     0.021 C 
ATOM     16  C14 UNK     1      -2.128  33.601 237.677  1.00  0.00     0.009 C 
ATOM     17  C15 UNK     1      -0.929  34.399 237.209  1.00  0.00     0.077 C 
ATOM     18  N4  UNK     1       0.226  35.025 235.201  1.00  0.00    -0.349 N 
ATOM     19  C17 UNK     1       0.659  34.785 233.920  1.00  0.00     0.018 A 
ATOM     20  H4  UNK     1       0.482  35.884 235.688  1.00  0.00     0.167 HD
ATOM     21  C20 UNK     1       1.545  35.880 233.385  1.00  0.00     0.069 C 
ENDBRANCH   8   9
ENDBRANCH   7   8
ENDBRANCH   1   7
BRANCH   2  22
ATOM     22  C7  UNK     1      -1.197  38.910 228.591  1.00  0.00     0.050 A 
ATOM     23  N3  UNK     1      -2.221  39.716 228.864  1.00  0.00    -0.264 N 
ATOM     24  O1  UNK     1      -1.836  40.960 228.381  1.00  0.00    -0.237 OA
ATOM     25  H3  UNK     1      -3.096  39.473 229.327  1.00  0.00     0.194 HD
ATOM     26  C18 UNK     1      -0.595  40.867 227.830  1.00  0.00     0.114 A 
ATOM     27  C10 UNK     1      -0.140  39.564 227.942  1.00  0.00     0.025 A 
ATOM     28  C21 UNK     1       0.126  41.902 227.240  1.00  0.00     0.082 A 
ATOM     29  C19 UNK     1       1.127  39.240 227.435  1.00  0.00     0.019 A 
ATOM     30  C22 UNK     1       1.882  40.258 226.836  1.00  0.00     0.043 A 
ATOM     31  C23 UNK     1       1.388  41.563 226.741  1.00  0.00     0.119 A 
ATOM     32  F1  UNK     1       2.138  42.509 226.160  1.00  0.00    -0.206 F 
ENDBRANCH   2  22
TORSDOF 4
ENDMDL
