MODEL 1
REMARK VINA RESULT:      -6.3      0.000      0.000
REMARK  1 active torsions:
REMARK  status: ('A' for Active; 'I' for Inactive)
REMARK    1  A    between atoms: O1_1  and  C16_18 
ROOT
ATOM      1  N1  UNK     1       0.961  32.719 237.032  1.00  0.00     0.089 N 
ATOM      2  C1  UNK     1       0.474  35.537 236.394  1.00  0.00    -0.005 C 
ATOM      3  C2  UNK     1       1.839  34.999 236.905  1.00  0.00     0.032 C 
ATOM      4  C3  UNK     1       2.016  33.550 236.412  1.00  0.00     0.232 C 
ATOM      5  C4  UNK     1      -0.633  34.628 236.995  1.00  0.00     0.045 C 
ATOM      6  C5  UNK     1       0.297  36.981 236.941  1.00  0.00     0.015 C 
ATOM      7  C6  UNK     1       3.018  35.922 236.537  1.00  0.00     0.008 C 
ATOM      8  C7  UNK     1       0.379  35.430 234.860  1.00  0.00    -0.040 A 
ATOM      9  C8  UNK     1       2.080  33.514 234.871  1.00  0.00     0.075 C 
ATOM     10  C9  UNK     1      -0.407  33.136 236.710  1.00  0.00     0.273 C 
ATOM     11  C10 UNK     1       1.458  37.906 236.571  1.00  0.00     0.001 C 
ATOM     12  C11 UNK     1       2.793  37.343 237.047  1.00  0.00     0.001 C 
ATOM     13  C12 UNK     1       1.130  34.455 234.165  1.00  0.00    -0.049 A 
ATOM     14  C13 UNK     1      -0.503  36.237 234.120  1.00  0.00     0.045 A 
ATOM     15  C14 UNK     1       1.145  31.288 236.813  1.00  0.00     0.310 C 
ATOM     16  C15 UNK     1       1.024  34.351 232.767  1.00  0.00     0.010 A 
ATOM     17  C16 UNK     1      -0.605  36.119 232.733  1.00  0.00     0.068 A 
ATOM     18  C17 UNK     1       0.163  35.180 232.055  1.00  0.00     0.037 A 
ENDROOT
BRANCH  17  19
ATOM     19  O1  UNK     1      -1.461  36.923 232.044  1.00  0.00    -0.356 OA
ATOM     20  C18 UNK     1      -1.655  36.630 230.661  1.00  0.00     0.210 C 
ENDBRANCH  17  19
TORSDOF 1
ENDMDL
MODEL 2
REMARK VINA RESULT:      -6.3      2.785      5.025
REMARK  1 active torsions:
REMARK  status: ('A' for Active; 'I' for Inactive)
REMARK    1  A    between atoms: O1_1  and  C16_18 
ROOT
ATOM      1  N1  UNK     1       0.115  34.716 233.479  1.00  0.00     0.089 N 
ATOM      2  C1  UNK     1       1.010  36.306 235.772  1.00  0.00    -0.005 C 
ATOM      3  C2  UNK     1      -0.464  36.270 235.279  1.00  0.00     0.032 C 
ATOM      4  C3  UNK     1      -0.748  34.883 234.669  1.00  0.00     0.232 C 
ATOM      5  C4  UNK     1       1.915  36.070 234.533  1.00  0.00     0.045 C 
ATOM      6  C5  UNK     1       1.286  37.726 236.338  1.00  0.00     0.015 C 
ATOM      7  C6  UNK     1      -1.469  36.678 236.375  1.00  0.00     0.008 C 
ATOM      8  C7  UNK     1       1.284  35.166 236.771  1.00  0.00    -0.040 A 
ATOM      9  C8  UNK     1      -0.621  33.790 235.750  1.00  0.00     0.075 C 
ATOM     10  C9  UNK     1       1.552  34.796 233.756  1.00  0.00     0.273 C 
ATOM     11  C10 UNK     1       0.300  38.135 237.434  1.00  0.00     0.001 C 
ATOM     12  C11 UNK     1      -1.142  38.056 236.943  1.00  0.00     0.001 C 
ATOM     13  C12 UNK     1       0.516  33.980 236.729  1.00  0.00    -0.049 A 
ATOM     14  C13 UNK     1       2.342  35.237 237.695  1.00  0.00     0.045 A 
ATOM     15  C14 UNK     1      -0.209  33.532 232.690  1.00  0.00     0.310 C 
ATOM     16  C15 UNK     1       0.784  32.937 237.632  1.00  0.00     0.010 A 
ATOM     17  C16 UNK     1       2.603  34.190 238.581  1.00  0.00     0.068 A 
ATOM     18  C17 UNK     1       1.821  33.043 238.554  1.00  0.00     0.037 A 
ENDROOT
BRANCH  17  19
ATOM     19  O1  UNK     1       3.629  34.294 239.470  1.00  0.00    -0.356 OA
ATOM     20  C18 UNK     1       4.157  35.600 239.701  1.00  0.00     0.210 C 
ENDBRANCH  17  19
TORSDOF 1
ENDMDL
MODEL 3
REMARK VINA RESULT:      -6.3      2.376      4.828
REMARK  1 active torsions:
REMARK  status: ('A' for Active; 'I' for Inactive)
REMARK    1  A    between atoms: O1_1  and  C16_18 
ROOT
ATOM      1  N1  UNK     1       2.457  37.442 236.655  1.00  0.00     0.089 N 
ATOM      2  C1  UNK     1      -0.105  36.436 235.650  1.00  0.00    -0.005 C 
ATOM      3  C2  UNK     1       1.198  36.452 234.804  1.00  0.00     0.032 C 
ATOM      4  C3  UNK     1       2.403  36.274 235.749  1.00  0.00     0.232 C 
ATOM      5  C4  UNK     1      -0.023  37.627 236.644  1.00  0.00     0.045 C 
ATOM      6  C5  UNK     1      -1.300  36.664 234.683  1.00  0.00     0.015 C 
ATOM      7  C6  UNK     1       1.169  35.435 233.646  1.00  0.00     0.008 C 
ATOM      8  C7  UNK     1      -0.206  35.144 236.482  1.00  0.00    -0.040 A 
ATOM      9  C8  UNK     1       2.343  34.894 236.436  1.00  0.00     0.075 C 
ATOM     10  C9  UNK     1       1.262  37.622 237.484  1.00  0.00     0.273 C 
ATOM     11  C10 UNK     1      -1.343  35.652 233.537  1.00  0.00     0.001 C 
ATOM     12  C11 UNK     1      -0.041  35.655 232.743  1.00  0.00     0.001 C 
ATOM     13  C12 UNK     1       0.962  34.444 236.858  1.00  0.00    -0.049 A 
ATOM     14  C13 UNK     1      -1.443  34.667 236.951  1.00  0.00     0.045 A 
ATOM     15  C14 UNK     1       3.674  37.498 237.458  1.00  0.00     0.310 C 
ATOM     16  C15 UNK     1       0.863  33.276 237.633  1.00  0.00     0.010 A 
ATOM     17  C16 UNK     1      -1.528  33.510 237.726  1.00  0.00     0.068 A 
ATOM     18  C17 UNK     1      -0.376  32.810 238.063  1.00  0.00     0.037 A 
ENDROOT
BRANCH  17  19
ATOM     19  O1  UNK     1      -2.742  33.068 238.156  1.00  0.00    -0.356 OA
ATOM     20  C18 UNK     1      -2.769  32.330 239.378  1.00  0.00     0.210 C 
ENDBRANCH  17  19
TORSDOF 1
ENDMDL
MODEL 4
REMARK VINA RESULT:      -6.1      2.612      5.073
REMARK  1 active torsions:
REMARK  status: ('A' for Active; 'I' for Inactive)
REMARK    1  A    between atoms: O1_1  and  C16_18 
ROOT
ATOM      1  N1  UNK     1      -0.563  36.173 233.742  1.00  0.00     0.089 N 
ATOM      2  C1  UNK     1       1.161  35.209 235.907  1.00  0.00    -0.005 C 
ATOM      3  C2  UNK     1       0.767  36.701 235.728  1.00  0.00     0.032 C 
ATOM      4  C3  UNK     1      -0.636  36.770 235.094  1.00  0.00     0.232 C 
ATOM      5  C4  UNK     1       1.179  34.565 234.494  1.00  0.00     0.045 C 
ATOM      6  C5  UNK     1       2.595  35.165 236.503  1.00  0.00     0.015 C 
ATOM      7  C6  UNK     1       0.892  37.512 237.033  1.00  0.00     0.008 C 
ATOM      8  C7  UNK     1       0.108  34.458 236.745  1.00  0.00    -0.040 A 
ATOM      9  C8  UNK     1      -1.682  36.152 236.045  1.00  0.00     0.075 C 
ATOM     10  C9  UNK     1      -0.132  34.772 233.721  1.00  0.00     0.273 C 
ATOM     11  C10 UNK     1       2.725  35.958 237.805  1.00  0.00     0.001 C 
ATOM     12  C11 UNK     1       2.298  37.410 237.618  1.00  0.00     0.001 C 
ATOM     13  C12 UNK     1      -1.231  34.910 236.779  1.00  0.00    -0.049 A 
ATOM     14  C13 UNK     1       0.425  33.274 237.433  1.00  0.00     0.045 A 
ATOM     15  C14 UNK     1      -1.776  36.366 232.955  1.00  0.00     0.310 C 
ATOM     16  C15 UNK     1      -2.190  34.209 237.531  1.00  0.00     0.010 A 
ATOM     17  C16 UNK     1      -0.539  32.583 238.170  1.00  0.00     0.068 A 
ATOM     18  C17 UNK     1      -1.845  33.053 238.224  1.00  0.00     0.037 A 
ENDROOT
BRANCH  17  19
ATOM     19  O1  UNK     1      -0.197  31.444 238.833  1.00  0.00    -0.356 OA
ATOM     20  C18 UNK     1       1.145  31.347 239.309  1.00  0.00     0.210 C 
ENDBRANCH  17  19
TORSDOF 1
ENDMDL
MODEL 5
REMARK VINA RESULT:      -6.0      2.632      5.291
REMARK  1 active torsions:
REMARK  status: ('A' for Active; 'I' for Inactive)
REMARK    1  A    between atoms: O1_1  and  C16_18 
ROOT
ATOM      1  N1  UNK     1       0.128  36.738 236.030  1.00  0.00     0.089 N 
ATOM      2  C1  UNK     1       0.400  34.245 234.514  1.00  0.00    -0.005 C 
ATOM      3  C2  UNK     1       0.660  35.650 233.903  1.00  0.00     0.032 C 
ATOM      4  C3  UNK     1       1.189  36.581 235.011  1.00  0.00     0.232 C 
ATOM      5  C4  UNK     1      -0.670  34.417 235.626  1.00  0.00     0.045 C 
ATOM      6  C5  UNK     1      -0.176  33.339 233.391  1.00  0.00     0.015 C 
ATOM      7  C6  UNK     1       1.566  35.600 232.656  1.00  0.00     0.008 C 
ATOM      8  C7  UNK     1       1.674  33.690 235.179  1.00  0.00    -0.040 A 
ATOM      9  C8  UNK     1       2.549  36.073 235.531  1.00  0.00     0.075 C 
ATOM     10  C9  UNK     1      -0.294  35.485 236.663  1.00  0.00     0.273 C 
ATOM     11  C10 UNK     1       0.723  33.275 232.154  1.00  0.00     0.001 C 
ATOM     12  C11 UNK     1       0.997  34.666 231.593  1.00  0.00     0.001 C 
ATOM     13  C12 UNK     1       2.665  34.571 235.669  1.00  0.00    -0.049 A 
ATOM     14  C13 UNK     1       1.855  32.311 235.383  1.00  0.00     0.045 A 
ATOM     15  C14 UNK     1       0.425  37.762 237.026  1.00  0.00     0.310 C 
ATOM     16  C15 UNK     1       3.816  34.057 236.291  1.00  0.00     0.010 A 
ATOM     17  C16 UNK     1       2.999  31.814 236.009  1.00  0.00     0.068 A 
ATOM     18  C17 UNK     1       3.983  32.686 236.458  1.00  0.00     0.037 A 
ENDROOT
BRANCH  17  19
ATOM     19  O1  UNK     1       3.149  30.472 236.184  1.00  0.00    -0.356 OA
ATOM     20  C18 UNK     1       3.572  30.028 237.472  1.00  0.00     0.210 C 
ENDBRANCH  17  19
TORSDOF 1
ENDMDL
MODEL 6
REMARK VINA RESULT:      -5.9      6.344     10.029
REMARK  1 active torsions:
REMARK  status: ('A' for Active; 'I' for Inactive)
REMARK    1  A    between atoms: O1_1  and  C16_18 
ROOT
ATOM      1  N1  UNK     1       1.205  42.379 227.867  1.00  0.00     0.089 N 
ATOM      2  C1  UNK     1      -1.007  40.458 227.824  1.00  0.00    -0.005 C 
ATOM      3  C2  UNK     1      -0.641  41.368 226.618  1.00  0.00     0.032 C 
ATOM      4  C3  UNK     1       0.879  41.626 226.637  1.00  0.00     0.232 C 
ATOM      5  C4  UNK     1      -0.609  41.223 229.115  1.00  0.00     0.045 C 
ATOM      6  C5  UNK     1      -2.547  40.251 227.811  1.00  0.00     0.015 C 
ATOM      7  C6  UNK     1      -1.154  40.812 225.275  1.00  0.00     0.008 C 
ATOM      8  C7  UNK     1      -0.196  39.149 227.792  1.00  0.00    -0.040 A 
ATOM      9  C8  UNK     1       1.647  40.303 226.436  1.00  0.00     0.075 C 
ATOM     10  C9  UNK     1       0.854  41.690 229.112  1.00  0.00     0.273 C 
ATOM     11  C10 UNK     1      -3.064  39.689 226.486  1.00  0.00     0.001 C 
ATOM     12  C11 UNK     1      -2.661  40.575 225.311  1.00  0.00     0.001 C 
ATOM     13  C12 UNK     1       1.062  39.104 227.149  1.00  0.00    -0.049 A 
ATOM     14  C13 UNK     1      -0.641  37.992 228.457  1.00  0.00     0.045 A 
ATOM     15  C14 UNK     1       2.579  42.869 227.901  1.00  0.00     0.310 C 
ATOM     16  C15 UNK     1       1.805  37.911 227.141  1.00  0.00     0.010 A 
ATOM     17  C16 UNK     1       0.110  36.815 228.447  1.00  0.00     0.068 A 
ATOM     18  C17 UNK     1       1.330  36.772 227.784  1.00  0.00     0.037 A 
ENDROOT
BRANCH  17  19
ATOM     19  O1  UNK     1      -0.353  35.710 229.092  1.00  0.00    -0.356 OA
ATOM     20  C18 UNK     1       0.498  35.130 230.080  1.00  0.00     0.210 C 
ENDBRANCH  17  19
TORSDOF 1
ENDMDL
MODEL 7
REMARK VINA RESULT:      -5.9      1.451      2.085
REMARK  1 active torsions:
REMARK  status: ('A' for Active; 'I' for Inactive)
REMARK    1  A    between atoms: O1_1  and  C16_18 
ROOT
ATOM      1  N1  UNK     1       2.443  34.108 237.185  1.00  0.00     0.089 N 
ATOM      2  C1  UNK     1      -0.120  35.260 236.354  1.00  0.00    -0.005 C 
ATOM      3  C2  UNK     1       1.013  36.087 237.023  1.00  0.00     0.032 C 
ATOM      4  C3  UNK     1       2.372  35.476 236.627  1.00  0.00     0.232 C 
ATOM      5  C4  UNK     1      -0.008  33.807 236.893  1.00  0.00     0.045 C 
ATOM      6  C5  UNK     1      -1.478  35.865 236.805  1.00  0.00     0.015 C 
ATOM      7  C6  UNK     1       0.906  37.596 236.722  1.00  0.00     0.008 C 
ATOM      8  C7  UNK     1       0.068  35.203 234.827  1.00  0.00    -0.040 A 
ATOM      9  C8  UNK     1       2.585  35.592 235.104  1.00  0.00     0.075 C 
ATOM     10  C9  UNK     1       1.392  33.204 236.711  1.00  0.00     0.273 C 
ATOM     11  C10 UNK     1      -1.597  37.359 236.500  1.00  0.00     0.001 C 
ATOM     12  C11 UNK     1      -0.455  38.149 237.132  1.00  0.00     0.001 C 
ATOM     13  C12 UNK     1       1.355  35.342 234.260  1.00  0.00    -0.049 A 
ATOM     14  C13 UNK     1      -1.010  34.940 233.963  1.00  0.00     0.045 A 
ATOM     15  C14 UNK     1       3.763  33.498 237.061  1.00  0.00     0.310 C 
ATOM     16  C15 UNK     1       1.521  35.270 232.866  1.00  0.00     0.010 A 
ATOM     17  C16 UNK     1      -0.831  34.864 232.581  1.00  0.00     0.068 A 
ATOM     18  C17 UNK     1       0.433  35.035 232.031  1.00  0.00     0.037 A 
ENDROOT
BRANCH  17  19
ATOM     19  O1  UNK     1      -1.898  34.617 231.771  1.00  0.00    -0.356 OA
ATOM     20  C18 UNK     1      -2.075  33.274 231.323  1.00  0.00     0.210 C 
ENDBRANCH  17  19
TORSDOF 1
ENDMDL
MODEL 8
REMARK VINA RESULT:      -5.9      2.557      4.639
REMARK  1 active torsions:
REMARK  status: ('A' for Active; 'I' for Inactive)
REMARK    1  A    between atoms: O1_1  and  C16_18 
ROOT
ATOM      1  N1  UNK     1       0.187  33.656 232.285  1.00  0.00     0.089 N 
ATOM      2  C1  UNK     1       0.281  35.501 234.559  1.00  0.00    -0.005 C 
ATOM      3  C2  UNK     1      -0.735  34.330 234.449  1.00  0.00     0.032 C 
ATOM      4  C3  UNK     1      -0.080  33.180 233.659  1.00  0.00     0.232 C 
ATOM      5  C4  UNK     1       0.610  35.962 233.113  1.00  0.00     0.045 C 
ATOM      6  C5  UNK     1      -0.417  36.665 235.316  1.00  0.00     0.015 C 
ATOM      7  C6  UNK     1      -1.295  33.897 235.818  1.00  0.00     0.008 C 
ATOM      8  C7  UNK     1       1.597  35.029 235.205  1.00  0.00    -0.040 A 
ATOM      9  C8  UNK     1       1.138  32.631 234.429  1.00  0.00     0.075 C 
ATOM     10  C9  UNK     1       1.081  34.815 232.207  1.00  0.00     0.273 C 
ATOM     11  C10 UNK     1      -0.965  36.246 236.681  1.00  0.00     0.001 C 
ATOM     12  C11 UNK     1      -1.930  35.072 236.556  1.00  0.00     0.001 C 
ATOM     13  C12 UNK     1       1.991  33.675 235.114  1.00  0.00    -0.049 A 
ATOM     14  C13 UNK     1       2.473  35.933 235.833  1.00  0.00     0.045 A 
ATOM     15  C14 UNK     1       0.613  32.596 231.376  1.00  0.00     0.310 C 
ATOM     16  C15 UNK     1       3.203  33.256 235.691  1.00  0.00     0.010 A 
ATOM     17  C16 UNK     1       3.677  35.505 236.395  1.00  0.00     0.068 A 
ATOM     18  C17 UNK     1       4.039  34.165 236.330  1.00  0.00     0.037 A 
ENDROOT
BRANCH  17  19
ATOM     19  O1  UNK     1       4.498  36.403 237.005  1.00  0.00    -0.356 OA
ATOM     20  C18 UNK     1       3.877  37.492 237.687  1.00  0.00     0.210 C 
ENDBRANCH  17  19
TORSDOF 1
ENDMDL
MODEL 9
REMARK VINA RESULT:      -5.6      4.881      7.445
REMARK  1 active torsions:
REMARK  status: ('A' for Active; 'I' for Inactive)
REMARK    1  A    between atoms: O1_1  and  C16_18 
ROOT
ATOM      1  N1  UNK     1       0.989  33.454 227.018  1.00  0.00     0.089 N 
ATOM      2  C1  UNK     1      -0.390  35.213 228.913  1.00  0.00    -0.005 C 
ATOM      3  C2  UNK     1       0.797  34.291 229.309  1.00  0.00     0.032 C 
ATOM      4  C3  UNK     1       1.734  34.141 228.095  1.00  0.00     0.232 C 
ATOM      5  C4  UNK     1      -1.138  34.521 227.741  1.00  0.00     0.045 C 
ATOM      6  C5  UNK     1      -1.343  35.310 230.136  1.00  0.00     0.015 C 
ATOM      7  C6  UNK     1       1.518  34.763 230.588  1.00  0.00     0.008 C 
ATOM      8  C7  UNK     1       0.117  36.573 228.400  1.00  0.00    -0.040 A 
ATOM      9  C8  UNK     1       2.346  35.507 227.722  1.00  0.00     0.075 C 
ATOM     10  C9  UNK     1      -0.215  34.158 226.568  1.00  0.00     0.273 C 
ATOM     11  C10 UNK     1      -0.639  35.789 231.406  1.00  0.00     0.001 C 
ATOM     12  C11 UNK     1       0.546  34.895 231.757  1.00  0.00     0.001 C 
ATOM     13  C12 UNK     1       1.403  36.685 227.824  1.00  0.00    -0.049 A 
ATOM     14  C13 UNK     1      -0.700  37.718 228.421  1.00  0.00     0.045 A 
ATOM     15  C14 UNK     1       1.828  33.063 225.889  1.00  0.00     0.310 C 
ATOM     16  C15 UNK     1       1.852  37.926 227.341  1.00  0.00     0.010 A 
ATOM     17  C16 UNK     1      -0.245  38.943 227.931  1.00  0.00     0.068 A 
ATOM     18  C17 UNK     1       1.033  39.049 227.397  1.00  0.00     0.037 A 
ENDROOT
BRANCH  17  19
ATOM     19  O1  UNK     1      -1.058  40.035 227.975  1.00  0.00    -0.356 OA
ATOM     20  C18 UNK     1      -0.481  41.255 228.438  1.00  0.00     0.210 C 
ENDBRANCH  17  19
TORSDOF 1
ENDMDL
