MODEL 1
REMARK VINA RESULT:      -5.7      0.000      0.000
REMARK  15 active torsions:
REMARK  status: ('A' for Active; 'I' for Inactive)
REMARK    1  A    between atoms: O1_1  and  C3_10 
REMARK    2  A    between atoms: O1_1  and  C16_23 
REMARK    3  A    between atoms: O2_2  and  C8_15 
REMARK    4  A    between atoms: O3_3  and  C14_21 
REMARK    5  A    between atoms: O5_5  and  C17_24 
REMARK    6  A    between atoms: O6_6  and  C23_30 
REMARK    7  A    between atoms: C2_9  and  C5_12 
REMARK    8  A    between atoms: C5_12  and  C10_17 
REMARK    9  A    between atoms: C10_17  and  C14_21 
REMARK   10  A    between atoms: C14_21  and  C15_22 
REMARK   11  A    between atoms: C15_22  and  C17_24 
REMARK   12  A    between atoms: C16_23  and  C18_25 
REMARK   13  A    between atoms: C17_24  and  C19_26 
REMARK   14  A    between atoms: C18_25  and  C20_27 
REMARK   15  A    between atoms: C19_26  and  C23_30 
ROOT
ATOM      1  C1  UNK     1       0.902  33.805 233.182  1.00  0.00     0.053 C 
ATOM      2  C2  UNK     1      -0.306  32.910 232.775  1.00  0.00     0.004 C 
ATOM      3  C3  UNK     1       0.501  35.231 233.639  1.00  0.00     0.143 C 
ATOM      4  C4  UNK     1       0.164  31.497 232.321  1.00  0.00     0.009 C 
ATOM      5  C6  UNK     1       1.769  33.106 234.229  1.00  0.00    -0.053 C 
ATOM      6  C7  UNK     1       1.724  35.985 234.157  1.00  0.00     0.069 C 
ATOM      7  C8  UNK     1       2.366  35.275 235.351  1.00  0.00     0.144 C 
ATOM      8  C9  UNK     1       1.165  30.921 233.289  1.00  0.00    -0.022 C 
ATOM      9  C11 UNK     1       2.420  33.783 235.193  1.00  0.00     0.012 C 
ATOM     10  C12 UNK     1       1.870  31.660 234.155  1.00  0.00     0.004 C 
ATOM     11  C13 UNK     1       0.752  31.445 230.907  1.00  0.00     0.014 C 
ENDROOT
BRANCH   2  12
ATOM     12  C5  UNK     1      -1.203  33.570 231.720  1.00  0.00     0.009 C 
BRANCH  12  13
ATOM     13  C10 UNK     1      -2.641  33.684 232.223  1.00  0.00     0.032 C 
BRANCH  13  14
ATOM     14  C14 UNK     1      -3.497  34.681 231.431  1.00  0.00     0.120 C 
BRANCH  14  15
ATOM     15  O3  UNK     1      -3.931  35.707 232.327  1.00  0.00    -0.395 OA
ATOM     16  H24 UNK     1      -3.373  35.661 233.123  1.00  0.00     0.210 HD
ENDBRANCH  14  15
BRANCH  14  17
ATOM     17  C15 UNK     1      -2.802  35.343 230.232  1.00  0.00     0.064 C 
BRANCH  17  18
ATOM     18  C17 UNK     1      -2.752  36.875 230.272  1.00  0.00     0.130 C 
BRANCH  18  19
ATOM     19  O5  UNK     1      -1.679  37.296 231.111  1.00  0.00    -0.395 OA
ATOM     20  H32 UNK     1      -1.766  38.255 231.253  1.00  0.00     0.210 HD
ENDBRANCH  18  19
BRANCH  18  21
ATOM     21  C19 UNK     1      -2.509  37.442 228.873  1.00  0.00     0.141 C 
BRANCH  21  22
ATOM     22  C23 UNK     1      -1.238  38.254 228.829  1.00  0.00     0.141 C 
ATOM     23  O7  UNK     1      -1.168  39.431 229.156  1.00  0.00    -0.650 OA
BRANCH  22  24
ATOM     24  O6  UNK     1      -0.171  37.533 228.403  1.00  0.00    -0.776 OA
ATOM     25  H36 UNK     1       0.444  37.318 229.137  1.00  0.00     0.167 HD
ENDBRANCH  22  24
ENDBRANCH  21  22
ENDBRANCH  18  21
ENDBRANCH  17  18
ENDBRANCH  14  17
ENDBRANCH  13  14
ENDBRANCH  12  13
ENDBRANCH   2  12
BRANCH   3  26
ATOM     26  O1  UNK     1      -0.479  35.196 234.674  1.00  0.00    -0.315 OA
BRANCH  26  27
ATOM     27  C16 UNK     1      -1.298  36.290 234.752  1.00  0.00     0.263 C 
ATOM     28  O4  UNK     1      -1.687  36.959 233.804  1.00  0.00    -0.265 OA
BRANCH  27  29
ATOM     29  C18 UNK     1      -1.636  36.576 236.205  1.00  0.00     0.081 C 
ATOM     30  C21 UNK     1      -1.108  35.425 237.057  1.00  0.00     0.020 C 
BRANCH  29  31
ATOM     31  C20 UNK     1      -1.046  37.917 236.665  1.00  0.00     0.010 C 
ATOM     32  C22 UNK     1       0.411  37.799 237.095  1.00  0.00     0.006 C 
ENDBRANCH  29  31
ENDBRANCH  27  29
ENDBRANCH  26  27
ENDBRANCH   3  26
BRANCH   7  33
ATOM     33  O2  UNK     1       3.683  35.793 235.517  1.00  0.00    -0.392 OA
ATOM     34  H21 UNK     1       3.665  36.742 235.304  1.00  0.00     0.210 HD
ENDBRANCH   7  33
TORSDOF 15
ENDMDL
MODEL 2
REMARK VINA RESULT:      -5.6      2.451      4.404
REMARK  15 active torsions:
REMARK  status: ('A' for Active; 'I' for Inactive)
REMARK    1  A    between atoms: O1_1  and  C3_10 
REMARK    2  A    between atoms: O1_1  and  C16_23 
REMARK    3  A    between atoms: O2_2  and  C8_15 
REMARK    4  A    between atoms: O3_3  and  C14_21 
REMARK    5  A    between atoms: O5_5  and  C17_24 
REMARK    6  A    between atoms: O6_6  and  C23_30 
REMARK    7  A    between atoms: C2_9  and  C5_12 
REMARK    8  A    between atoms: C5_12  and  C10_17 
REMARK    9  A    between atoms: C10_17  and  C14_21 
REMARK   10  A    between atoms: C14_21  and  C15_22 
REMARK   11  A    between atoms: C15_22  and  C17_24 
REMARK   12  A    between atoms: C16_23  and  C18_25 
REMARK   13  A    between atoms: C17_24  and  C19_26 
REMARK   14  A    between atoms: C18_25  and  C20_27 
REMARK   15  A    between atoms: C19_26  and  C23_30 
ROOT
ATOM      1  C1  UNK     1       1.906  33.289 234.763  1.00  0.00     0.053 C 
ATOM      2  C2  UNK     1       0.660  33.534 233.862  1.00  0.00     0.004 C 
ATOM      3  C3  UNK     1       2.609  34.590 235.230  1.00  0.00     0.143 C 
ATOM      4  C4  UNK     1       0.006  32.190 233.424  1.00  0.00     0.009 C 
ATOM      5  C6  UNK     1       1.554  32.389 235.948  1.00  0.00    -0.053 C 
ATOM      6  C7  UNK     1       3.724  34.264 236.222  1.00  0.00     0.069 C 
ATOM      7  C8  UNK     1       3.187  33.551 237.465  1.00  0.00     0.144 C 
ATOM      8  C9  UNK     1      -0.152  31.256 234.595  1.00  0.00    -0.022 C 
ATOM      9  C11 UNK     1       2.141  32.521 237.151  1.00  0.00     0.012 C 
ATOM     10  C12 UNK     1       0.543  31.369 235.734  1.00  0.00     0.004 C 
ATOM     11  C13 UNK     1       0.745  31.459 232.299  1.00  0.00     0.014 C 
ENDROOT
BRANCH   2  12
ATOM     12  C5  UNK     1       0.968  34.429 232.656  1.00  0.00     0.009 C 
BRANCH  12  13
ATOM     13  C10 UNK     1      -0.259  35.249 232.258  1.00  0.00     0.032 C 
BRANCH  13  14
ATOM     14  C14 UNK     1      -1.135  35.668 233.445  1.00  0.00     0.120 C 
BRANCH  14  15
ATOM     15  O3  UNK     1      -1.198  37.096 233.470  1.00  0.00    -0.395 OA
ATOM     16  H24 UNK     1      -1.230  37.409 232.550  1.00  0.00     0.210 HD
ENDBRANCH  14  15
BRANCH  14  17
ATOM     17  C15 UNK     1      -2.569  35.118 233.435  1.00  0.00     0.064 C 
BRANCH  17  18
ATOM     18  C17 UNK     1      -3.110  34.683 234.803  1.00  0.00     0.130 C 
BRANCH  18  19
ATOM     19  O5  UNK     1      -3.839  33.465 234.662  1.00  0.00    -0.395 OA
ATOM     20  H32 UNK     1      -4.697  33.673 234.254  1.00  0.00     0.210 HD
ENDBRANCH  18  19
BRANCH  18  21
ATOM     21  C19 UNK     1      -1.962  34.436 235.781  1.00  0.00     0.141 C 
BRANCH  21  22
ATOM     22  C23 UNK     1      -2.342  34.852 237.181  1.00  0.00     0.141 C 
ATOM     23  O7  UNK     1      -2.997  35.852 237.443  1.00  0.00    -0.650 OA
BRANCH  22  24
ATOM     24  O6  UNK     1      -1.895  33.986 238.124  1.00  0.00    -0.776 OA
ATOM     25  H36 UNK     1      -1.240  34.402 238.724  1.00  0.00     0.167 HD
ENDBRANCH  22  24
ENDBRANCH  21  22
ENDBRANCH  18  21
ENDBRANCH  17  18
ENDBRANCH  14  17
ENDBRANCH  13  14
ENDBRANCH  12  13
ENDBRANCH   2  12
BRANCH   3  26
ATOM     26  O1  UNK     1       1.695  35.486 235.857  1.00  0.00    -0.315 OA
BRANCH  26  27
ATOM     27  C16 UNK     1       1.750  36.784 235.428  1.00  0.00     0.263 C 
ATOM     28  O4  UNK     1       1.924  37.147 234.272  1.00  0.00    -0.265 OA
BRANCH  27  29
ATOM     29  C18 UNK     1       1.590  37.724 236.612  1.00  0.00     0.081 C 
ATOM     30  C21 UNK     1       0.111  37.779 236.985  1.00  0.00     0.020 C 
BRANCH  29  31
ATOM     31  C20 UNK     1       2.443  37.272 237.806  1.00  0.00     0.010 C 
ATOM     32  C22 UNK     1       3.921  37.597 237.626  1.00  0.00     0.006 C 
ENDBRANCH  29  31
ENDBRANCH  27  29
ENDBRANCH  26  27
ENDBRANCH   3  26
BRANCH   7  33
ATOM     33  O2  UNK     1       4.287  32.937 238.132  1.00  0.00    -0.392 OA
ATOM     34  H21 UNK     1       3.946  32.191 238.655  1.00  0.00     0.210 HD
ENDBRANCH   7  33
TORSDOF 15
ENDMDL
MODEL 3
REMARK VINA RESULT:      -5.5      1.627      2.609
REMARK  15 active torsions:
REMARK  status: ('A' for Active; 'I' for Inactive)
REMARK    1  A    between atoms: O1_1  and  C3_10 
REMARK    2  A    between atoms: O1_1  and  C16_23 
REMARK    3  A    between atoms: O2_2  and  C8_15 
REMARK    4  A    between atoms: O3_3  and  C14_21 
REMARK    5  A    between atoms: O5_5  and  C17_24 
REMARK    6  A    between atoms: O6_6  and  C23_30 
REMARK    7  A    between atoms: C2_9  and  C5_12 
REMARK    8  A    between atoms: C5_12  and  C10_17 
REMARK    9  A    between atoms: C10_17  and  C14_21 
REMARK   10  A    between atoms: C14_21  and  C15_22 
REMARK   11  A    between atoms: C15_22  and  C17_24 
REMARK   12  A    between atoms: C16_23  and  C18_25 
REMARK   13  A    between atoms: C17_24  and  C19_26 
REMARK   14  A    between atoms: C18_25  and  C20_27 
REMARK   15  A    between atoms: C19_26  and  C23_30 
ROOT
ATOM      1  C1  UNK     1       0.969  34.410 232.576  1.00  0.00     0.053 C 
ATOM      2  C2  UNK     1      -0.217  34.434 231.568  1.00  0.00     0.004 C 
ATOM      3  C3  UNK     1       0.797  35.383 233.771  1.00  0.00     0.143 C 
ATOM      4  C4  UNK     1       0.021  33.441 230.391  1.00  0.00     0.009 C 
ATOM      5  C6  UNK     1       1.251  32.985 233.053  1.00  0.00    -0.053 C 
ATOM      6  C7  UNK     1       1.927  35.189 234.780  1.00  0.00     0.069 C 
ATOM      7  C8  UNK     1       1.952  33.764 235.338  1.00  0.00     0.144 C 
ATOM      8  C9  UNK     1       0.480  32.099 230.898  1.00  0.00    -0.022 C 
ATOM      9  C11 UNK     1       1.694  32.716 234.294  1.00  0.00     0.012 C 
ATOM     10  C12 UNK     1       1.019  31.907 232.108  1.00  0.00     0.004 C 
ATOM     11  C13 UNK     1       1.008  33.937 229.329  1.00  0.00     0.014 C 
ENDROOT
BRANCH   2  12
ATOM     12  C5  UNK     1      -0.533  35.845 231.058  1.00  0.00     0.009 C 
BRANCH  12  13
ATOM     13  C10 UNK     1      -1.977  35.937 230.568  1.00  0.00     0.032 C 
BRANCH  13  14
ATOM     14  C14 UNK     1      -2.158  36.834 229.336  1.00  0.00     0.120 C 
BRANCH  14  15
ATOM     15  O3  UNK     1      -3.427  37.484 229.441  1.00  0.00    -0.395 OA
ATOM     16  H24 UNK     1      -3.303  38.419 229.201  1.00  0.00     0.210 HD
ENDBRANCH  14  15
BRANCH  14  17
ATOM     17  C15 UNK     1      -1.076  37.906 229.136  1.00  0.00     0.064 C 
BRANCH  17  18
ATOM     18  C17 UNK     1      -1.484  39.084 228.243  1.00  0.00     0.130 C 
BRANCH  18  19
ATOM     19  O5  UNK     1      -2.403  39.919 228.944  1.00  0.00    -0.395 OA
ATOM     20  H32 UNK     1      -2.472  39.591 229.857  1.00  0.00     0.210 HD
ENDBRANCH  18  19
BRANCH  18  21
ATOM     21  C19 UNK     1      -0.263  39.928 227.876  1.00  0.00     0.141 C 
BRANCH  21  22
ATOM     22  C23 UNK     1      -0.597  41.400 227.890  1.00  0.00     0.141 C 
ATOM     23  O7  UNK     1      -1.064  42.005 226.933  1.00  0.00    -0.650 OA
BRANCH  22  24
ATOM     24  O6  UNK     1      -0.340  41.984 229.087  1.00  0.00    -0.776 OA
ATOM     25  H36 UNK     1      -0.874  42.795 229.222  1.00  0.00     0.167 HD
ENDBRANCH  22  24
ENDBRANCH  21  22
ENDBRANCH  18  21
ENDBRANCH  17  18
ENDBRANCH  14  17
ENDBRANCH  13  14
ENDBRANCH  12  13
ENDBRANCH   2  12
BRANCH   3  26
ATOM     26  O1  UNK     1      -0.445  35.180 234.440  1.00  0.00    -0.315 OA
BRANCH  26  27
ATOM     27  C16 UNK     1      -1.121  36.317 234.792  1.00  0.00     0.263 C 
ATOM     28  O4  UNK     1      -1.594  37.135 234.015  1.00  0.00    -0.265 OA
BRANCH  27  29
ATOM     29  C18 UNK     1      -1.176  36.434 236.306  1.00  0.00     0.081 C 
ATOM     30  C21 UNK     1      -1.139  37.914 236.675  1.00  0.00     0.020 C 
BRANCH  29  31
ATOM     31  C20 UNK     1      -2.430  35.757 236.876  1.00  0.00     0.010 C 
ATOM     32  C22 UNK     1      -2.155  34.346 237.382  1.00  0.00     0.006 C 
ENDBRANCH  29  31
ENDBRANCH  27  29
ENDBRANCH  26  27
ENDBRANCH   3  26
BRANCH   7  33
ATOM     33  O2  UNK     1       3.227  33.547 235.937  1.00  0.00    -0.392 OA
ATOM     34  H21 UNK     1       3.304  34.137 236.707  1.00  0.00     0.210 HD
ENDBRANCH   7  33
TORSDOF 15
ENDMDL
MODEL 4
REMARK VINA RESULT:      -5.5      2.340      4.054
REMARK  15 active torsions:
REMARK  status: ('A' for Active; 'I' for Inactive)
REMARK    1  A    between atoms: O1_1  and  C3_10 
REMARK    2  A    between atoms: O1_1  and  C16_23 
REMARK    3  A    between atoms: O2_2  and  C8_15 
REMARK    4  A    between atoms: O3_3  and  C14_21 
REMARK    5  A    between atoms: O5_5  and  C17_24 
REMARK    6  A    between atoms: O6_6  and  C23_30 
REMARK    7  A    between atoms: C2_9  and  C5_12 
REMARK    8  A    between atoms: C5_12  and  C10_17 
REMARK    9  A    between atoms: C10_17  and  C14_21 
REMARK   10  A    between atoms: C14_21  and  C15_22 
REMARK   11  A    between atoms: C15_22  and  C17_24 
REMARK   12  A    between atoms: C16_23  and  C18_25 
REMARK   13  A    between atoms: C17_24  and  C19_26 
REMARK   14  A    between atoms: C18_25  and  C20_27 
REMARK   15  A    between atoms: C19_26  and  C23_30 
ROOT
ATOM      1  C1  UNK     1       3.573  33.961 236.605  1.00  0.00     0.053 C 
ATOM      2  C2  UNK     1       2.500  32.898 236.224  1.00  0.00     0.004 C 
ATOM      3  C3  UNK     1       3.252  35.388 236.093  1.00  0.00     0.143 C 
ATOM      4  C4  UNK     1       2.885  31.488 236.761  1.00  0.00     0.009 C 
ATOM      5  C6  UNK     1       3.837  33.953 238.110  1.00  0.00    -0.053 C 
ATOM      6  C7  UNK     1       4.273  36.387 236.633  1.00  0.00     0.069 C 
ATOM      7  C8  UNK     1       4.273  36.428 238.163  1.00  0.00     0.144 C 
ATOM      8  C9  UNK     1       3.320  31.556 238.202  1.00  0.00    -0.022 C 
ATOM      9  C11 UNK     1       4.152  35.070 238.791  1.00  0.00     0.012 C 
ATOM     10  C12 UNK     1       3.732  32.680 238.800  1.00  0.00     0.004 C 
ATOM     11  C13 UNK     1       3.966  30.770 235.948  1.00  0.00     0.014 C 
ENDROOT
BRANCH   2  12
ATOM     12  C5  UNK     1       2.206  32.866 234.719  1.00  0.00     0.009 C 
BRANCH  12  13
ATOM     13  C10 UNK     1       0.848  32.222 234.443  1.00  0.00     0.032 C 
BRANCH  13  14
ATOM     14  C14 UNK     1       0.011  32.967 233.396  1.00  0.00     0.120 C 
BRANCH  14  15
ATOM     15  O3  UNK     1      -1.284  33.209 233.951  1.00  0.00    -0.395 OA
ATOM     16  H24 UNK     1      -1.362  34.164 234.120  1.00  0.00     0.210 HD
ENDBRANCH  14  15
BRANCH  14  17
ATOM     17  C15 UNK     1       0.592  34.305 232.914  1.00  0.00     0.064 C 
BRANCH  17  18
ATOM     18  C17 UNK     1      -0.243  35.035 231.855  1.00  0.00     0.130 C 
BRANCH  18  19
ATOM     19  O5  UNK     1      -1.309  34.192 231.423  1.00  0.00    -0.395 OA
ATOM     20  H32 UNK     1      -1.018  33.268 231.514  1.00  0.00     0.210 HD
ENDBRANCH  18  19
BRANCH  18  21
ATOM     21  C19 UNK     1      -0.854  36.310 232.437  1.00  0.00     0.141 C 
BRANCH  21  22
ATOM     22  C23 UNK     1      -2.357  36.204 232.516  1.00  0.00     0.141 C 
ATOM     23  O7  UNK     1      -2.957  35.668 233.438  1.00  0.00    -0.650 OA
BRANCH  22  24
ATOM     24  O6  UNK     1      -2.979  36.786 231.460  1.00  0.00    -0.776 OA
ATOM     25  H36 UNK     1      -3.355  36.121 230.844  1.00  0.00     0.167 HD
ENDBRANCH  22  24
ENDBRANCH  21  22
ENDBRANCH  18  21
ENDBRANCH  17  18
ENDBRANCH  14  17
ENDBRANCH  13  14
ENDBRANCH  12  13
ENDBRANCH   2  12
BRANCH   3  26
ATOM     26  O1  UNK     1       1.951  35.811 236.495  1.00  0.00    -0.315 OA
BRANCH  26  27
ATOM     27  C16 UNK     1       1.287  36.612 235.605  1.00  0.00     0.263 C 
ATOM     28  O4  UNK     1       1.774  37.128 234.608  1.00  0.00    -0.265 OA
BRANCH  27  29
ATOM     29  C18 UNK     1      -0.153  36.794 236.054  1.00  0.00     0.081 C 
ATOM     30  C21 UNK     1      -0.638  35.480 236.659  1.00  0.00     0.020 C 
BRANCH  29  31
ATOM     31  C20 UNK     1      -0.286  37.945 237.060  1.00  0.00     0.010 C 
ATOM     32  C22 UNK     1      -1.675  38.572 237.054  1.00  0.00     0.006 C 
ENDBRANCH  29  31
ENDBRANCH  27  29
ENDBRANCH  26  27
ENDBRANCH   3  26
BRANCH   7  33
ATOM     33  O2  UNK     1       5.482  37.053 238.588  1.00  0.00    -0.392 OA
ATOM     34  H21 UNK     1       6.199  36.398 238.527  1.00  0.00     0.210 HD
ENDBRANCH   7  33
TORSDOF 15
ENDMDL
MODEL 5
REMARK VINA RESULT:      -5.5      2.208      3.592
REMARK  15 active torsions:
REMARK  status: ('A' for Active; 'I' for Inactive)
REMARK    1  A    between atoms: O1_1  and  C3_10 
REMARK    2  A    between atoms: O1_1  and  C16_23 
REMARK    3  A    between atoms: O2_2  and  C8_15 
REMARK    4  A    between atoms: O3_3  and  C14_21 
REMARK    5  A    between atoms: O5_5  and  C17_24 
REMARK    6  A    between atoms: O6_6  and  C23_30 
REMARK    7  A    between atoms: C2_9  and  C5_12 
REMARK    8  A    between atoms: C5_12  and  C10_17 
REMARK    9  A    between atoms: C10_17  and  C14_21 
REMARK   10  A    between atoms: C14_21  and  C15_22 
REMARK   11  A    between atoms: C15_22  and  C17_24 
REMARK   12  A    between atoms: C16_23  and  C18_25 
REMARK   13  A    between atoms: C17_24  and  C19_26 
REMARK   14  A    between atoms: C18_25  and  C20_27 
REMARK   15  A    between atoms: C19_26  and  C23_30 
ROOT
ATOM      1  C1  UNK     1       3.374  34.137 236.424  1.00  0.00     0.053 C 
ATOM      2  C2  UNK     1       2.361  33.114 235.831  1.00  0.00     0.004 C 
ATOM      3  C3  UNK     1       2.911  35.613 236.318  1.00  0.00     0.143 C 
ATOM      4  C4  UNK     1       2.889  31.655 235.963  1.00  0.00     0.009 C 
ATOM      5  C6  UNK     1       3.744  33.770 237.861  1.00  0.00    -0.053 C 
ATOM      6  C7  UNK     1       3.889  36.530 237.049  1.00  0.00     0.069 C 
ATOM      7  C8  UNK     1       3.993  36.179 238.535  1.00  0.00     0.144 C 
ATOM      8  C9  UNK     1       3.418  31.392 237.349  1.00  0.00    -0.022 C 
ATOM      9  C11 UNK     1       4.020  34.700 238.793  1.00  0.00     0.012 C 
ATOM     10  C12 UNK     1       3.785  32.359 238.199  1.00  0.00     0.004 C 
ATOM     11  C13 UNK     1       3.962  31.270 234.939  1.00  0.00     0.014 C 
ENDROOT
BRANCH   2  12
ATOM     12  C5  UNK     1       1.965  33.440 234.386  1.00  0.00     0.009 C 
BRANCH  12  13
ATOM     13  C10 UNK     1       0.446  33.464 234.230  1.00  0.00     0.032 C 
BRANCH  13  14
ATOM     14  C14 UNK     1      -0.057  34.494 233.210  1.00  0.00     0.120 C 
BRANCH  14  15
ATOM     15  O3  UNK     1       0.491  34.160 231.933  1.00  0.00    -0.395 OA
ATOM     16  H24 UNK     1      -0.066  33.465 231.542  1.00  0.00     0.210 HD
ENDBRANCH  14  15
BRANCH  14  17
ATOM     17  C15 UNK     1      -1.583  34.599 233.074  1.00  0.00     0.064 C 
BRANCH  17  18
ATOM     18  C17 UNK     1      -2.113  36.000 232.742  1.00  0.00     0.130 C 
BRANCH  18  19
ATOM     19  O5  UNK     1      -1.066  36.956 232.898  1.00  0.00    -0.395 OA
ATOM     20  H32 UNK     1      -0.277  36.488 233.223  1.00  0.00     0.210 HD
ENDBRANCH  18  19
BRANCH  18  21
ATOM     21  C19 UNK     1      -2.598  36.061 231.294  1.00  0.00     0.141 C 
BRANCH  21  22
ATOM     22  C23 UNK     1      -1.538  36.642 230.390  1.00  0.00     0.141 C 
ATOM     23  O7  UNK     1      -0.586  36.006 229.958  1.00  0.00    -0.650 OA
BRANCH  22  24
ATOM     24  O6  UNK     1      -1.761  37.946 230.092  1.00  0.00    -0.776 OA
ATOM     25  H36 UNK     1      -1.023  38.521 230.387  1.00  0.00     0.167 HD
ENDBRANCH  22  24
ENDBRANCH  21  22
ENDBRANCH  18  21
ENDBRANCH  17  18
ENDBRANCH  14  17
ENDBRANCH  13  14
ENDBRANCH  12  13
ENDBRANCH   2  12
BRANCH   3  26
ATOM     26  O1  UNK     1       1.613  35.798 236.878  1.00  0.00    -0.315 OA
BRANCH  26  27
ATOM     27  C16 UNK     1       0.764  36.593 236.156  1.00  0.00     0.263 C 
ATOM     28  O4  UNK     1       1.012  37.102 235.072  1.00  0.00    -0.265 OA
BRANCH  27  29
ATOM     29  C18 UNK     1      -0.538  36.779 236.918  1.00  0.00     0.081 C 
ATOM     30  C21 UNK     1      -1.002  38.220 236.732  1.00  0.00     0.020 C 
BRANCH  29  31
ATOM     31  C20 UNK     1      -1.612  35.789 236.444  1.00  0.00     0.010 C 
ATOM     32  C22 UNK     1      -1.580  34.476 237.216  1.00  0.00     0.006 C 
ENDBRANCH  29  31
ENDBRANCH  27  29
ENDBRANCH  26  27
ENDBRANCH   3  26
BRANCH   7  33
ATOM     33  O2  UNK     1       5.178  36.782 239.049  1.00  0.00    -0.392 OA
ATOM     34  H21 UNK     1       4.977  37.709 239.264  1.00  0.00     0.210 HD
ENDBRANCH   7  33
TORSDOF 15
ENDMDL
MODEL 6
REMARK VINA RESULT:      -5.4      2.189      4.896
REMARK  15 active torsions:
REMARK  status: ('A' for Active; 'I' for Inactive)
REMARK    1  A    between atoms: O1_1  and  C3_10 
REMARK    2  A    between atoms: O1_1  and  C16_23 
REMARK    3  A    between atoms: O2_2  and  C8_15 
REMARK    4  A    between atoms: O3_3  and  C14_21 
REMARK    5  A    between atoms: O5_5  and  C17_24 
REMARK    6  A    between atoms: O6_6  and  C23_30 
REMARK    7  A    between atoms: C2_9  and  C5_12 
REMARK    8  A    between atoms: C5_12  and  C10_17 
REMARK    9  A    between atoms: C10_17  and  C14_21 
REMARK   10  A    between atoms: C14_21  and  C15_22 
REMARK   11  A    between atoms: C15_22  and  C17_24 
REMARK   12  A    between atoms: C16_23  and  C18_25 
REMARK   13  A    between atoms: C17_24  and  C19_26 
REMARK   14  A    between atoms: C18_25  and  C20_27 
REMARK   15  A    between atoms: C19_26  and  C23_30 
ROOT
ATOM      1  C1  UNK     1       0.968  35.824 236.319  1.00  0.00     0.053 C 
ATOM      2  C2  UNK     1       1.727  34.602 236.914  1.00  0.00     0.004 C 
ATOM      3  C3  UNK     1      -0.537  35.561 236.053  1.00  0.00     0.143 C 
ATOM      4  C4  UNK     1       3.231  34.929 237.150  1.00  0.00     0.009 C 
ATOM      5  C6  UNK     1       1.173  37.067 237.185  1.00  0.00    -0.053 C 
ATOM      6  C7  UNK     1      -1.231  36.848 235.612  1.00  0.00     0.069 C 
ATOM      7  C8  UNK     1      -1.128  37.942 236.678  1.00  0.00     0.144 C 
ATOM      8  C9  UNK     1       3.394  36.257 237.842  1.00  0.00    -0.022 C 
ATOM      9  C11 UNK     1       0.222  38.007 237.332  1.00  0.00     0.012 C 
ATOM     10  C12 UNK     1       2.450  37.205 237.862  1.00  0.00     0.004 C 
ATOM     11  C13 UNK     1       4.092  34.919 235.883  1.00  0.00     0.014 C 
ENDROOT
BRANCH   2  12
ATOM     12  C5  UNK     1       1.553  33.331 236.073  1.00  0.00     0.009 C 
BRANCH  12  13
ATOM     13  C10 UNK     1       1.968  33.576 234.623  1.00  0.00     0.032 C 
BRANCH  13  14
ATOM     14  C14 UNK     1       0.870  33.252 233.602  1.00  0.00     0.120 C 
BRANCH  14  15
ATOM     15  O3  UNK     1      -0.217  32.635 234.296  1.00  0.00    -0.395 OA
ATOM     16  H24 UNK     1      -0.010  31.689 234.393  1.00  0.00     0.210 HD
ENDBRANCH  14  15
BRANCH  14  17
ATOM     17  C15 UNK     1       0.326  34.452 232.813  1.00  0.00     0.064 C 
BRANCH  17  18
ATOM     18  C17 UNK     1      -1.057  34.246 232.183  1.00  0.00     0.130 C 
BRANCH  18  19
ATOM     19  O5  UNK     1      -2.065  34.412 233.178  1.00  0.00    -0.395 OA
ATOM     20  H32 UNK     1      -2.239  35.364 233.274  1.00  0.00     0.210 HD
ENDBRANCH  18  19
BRANCH  18  21
ATOM     21  C19 UNK     1      -1.305  35.276 231.082  1.00  0.00     0.141 C 
BRANCH  21  22
ATOM     22  C23 UNK     1      -2.243  36.361 231.554  1.00  0.00     0.141 C 
ATOM     23  O7  UNK     1      -3.451  36.353 231.357  1.00  0.00    -0.650 OA
BRANCH  22  24
ATOM     24  O6  UNK     1      -1.605  37.342 232.240  1.00  0.00    -0.776 OA
ATOM     25  H36 UNK     1      -1.637  37.192 233.209  1.00  0.00     0.167 HD
ENDBRANCH  22  24
ENDBRANCH  21  22
ENDBRANCH  18  21
ENDBRANCH  17  18
ENDBRANCH  14  17
ENDBRANCH  13  14
ENDBRANCH  12  13
ENDBRANCH   2  12
BRANCH   3  26
ATOM     26  O1  UNK     1      -1.198  35.068 237.216  1.00  0.00    -0.315 OA
BRANCH  26  27
ATOM     27  C16 UNK     1      -1.966  33.950 237.031  1.00  0.00     0.263 C 
ATOM     28  O4  UNK     1      -2.522  33.631 235.990  1.00  0.00    -0.265 OA
BRANCH  27  29
ATOM     29  C18 UNK     1      -2.053  33.167 238.331  1.00  0.00     0.081 C 
ATOM     30  C21 UNK     1      -3.323  32.321 238.298  1.00  0.00     0.020 C 
BRANCH  29  31
ATOM     31  C20 UNK     1      -0.812  32.288 238.541  1.00  0.00     0.010 C 
ATOM     32  C22 UNK     1      -0.859  31.004 237.722  1.00  0.00     0.006 C 
ENDBRANCH  29  31
ENDBRANCH  27  29
ENDBRANCH  26  27
ENDBRANCH   3  26
BRANCH   7  33
ATOM     33  O2  UNK     1      -1.428  39.191 236.059  1.00  0.00    -0.392 OA
ATOM     34  H21 UNK     1      -1.127  39.151 235.135  1.00  0.00     0.210 HD
ENDBRANCH   7  33
TORSDOF 15
ENDMDL
MODEL 7
REMARK VINA RESULT:      -5.4      3.050      5.251
REMARK  15 active torsions:
REMARK  status: ('A' for Active; 'I' for Inactive)
REMARK    1  A    between atoms: O1_1  and  C3_10 
REMARK    2  A    between atoms: O1_1  and  C16_23 
REMARK    3  A    between atoms: O2_2  and  C8_15 
REMARK    4  A    between atoms: O3_3  and  C14_21 
REMARK    5  A    between atoms: O5_5  and  C17_24 
REMARK    6  A    between atoms: O6_6  and  C23_30 
REMARK    7  A    between atoms: C2_9  and  C5_12 
REMARK    8  A    between atoms: C5_12  and  C10_17 
REMARK    9  A    between atoms: C10_17  and  C14_21 
REMARK   10  A    between atoms: C14_21  and  C15_22 
REMARK   11  A    between atoms: C15_22  and  C17_24 
REMARK   12  A    between atoms: C16_23  and  C18_25 
REMARK   13  A    between atoms: C17_24  and  C19_26 
REMARK   14  A    between atoms: C18_25  and  C20_27 
REMARK   15  A    between atoms: C19_26  and  C23_30 
ROOT
ATOM      1  C1  UNK     1       0.727  33.873 229.424  1.00  0.00     0.053 C 
ATOM      2  C2  UNK     1       0.089  34.923 228.468  1.00  0.00     0.004 C 
ATOM      3  C3  UNK     1       0.114  33.866 230.848  1.00  0.00     0.143 C 
ATOM      4  C4  UNK     1       0.753  34.883 227.060  1.00  0.00     0.009 C 
ATOM      5  C6  UNK     1       0.703  32.479 228.798  1.00  0.00    -0.053 C 
ATOM      6  C7  UNK     1       0.693  32.716 231.669  1.00  0.00     0.069 C 
ATOM      7  C8  UNK     1       0.401  31.357 231.027  1.00  0.00     0.144 C 
ATOM      8  C9  UNK     1       0.880  33.468 226.560  1.00  0.00    -0.022 C 
ATOM      9  C11 UNK     1       0.558  31.362 229.534  1.00  0.00     0.012 C 
ATOM     10  C12 UNK     1       0.840  32.393 227.356  1.00  0.00     0.004 C 
ATOM     11  C13 UNK     1       2.124  35.564 226.983  1.00  0.00     0.014 C 
ENDROOT
BRANCH   2  12
ATOM     12  C5  UNK     1       0.096  36.340 229.053  1.00  0.00     0.009 C 
BRANCH  12  13
ATOM     13  C10 UNK     1      -1.123  37.131 228.581  1.00  0.00     0.032 C 
BRANCH  13  14
ATOM     14  C14 UNK     1      -0.816  38.593 228.231  1.00  0.00     0.120 C 
BRANCH  14  15
ATOM     15  O3  UNK     1      -1.161  39.403 229.357  1.00  0.00    -0.395 OA
ATOM     16  H24 UNK     1      -0.489  39.258 230.045  1.00  0.00     0.210 HD
ENDBRANCH  14  15
BRANCH  14  17
ATOM     17  C15 UNK     1       0.642  38.888 227.847  1.00  0.00     0.064 C 
BRANCH  17  18
ATOM     18  C17 UNK     1       0.874  40.238 227.158  1.00  0.00     0.130 C 
BRANCH  18  19
ATOM     19  O5  UNK     1      -0.361  40.946 227.067  1.00  0.00    -0.395 OA
ATOM     20  H32 UNK     1      -1.077  40.337 227.317  1.00  0.00     0.210 HD
ENDBRANCH  18  19
BRANCH  18  21
ATOM     21  C19 UNK     1       1.850  41.093 227.966  1.00  0.00     0.141 C 
BRANCH  21  22
ATOM     22  C23 UNK     1       1.139  42.243 228.637  1.00  0.00     0.141 C 
ATOM     23  O7  UNK     1       0.217  42.107 229.430  1.00  0.00    -0.650 OA
BRANCH  22  24
ATOM     24  O6  UNK     1       1.644  43.450 228.279  1.00  0.00    -0.776 OA
ATOM     25  H36 UNK     1       1.339  44.167 228.876  1.00  0.00     0.167 HD
ENDBRANCH  22  24
ENDBRANCH  21  22
ENDBRANCH  18  21
ENDBRANCH  17  18
ENDBRANCH  14  17
ENDBRANCH  13  14
ENDBRANCH  12  13
ENDBRANCH   2  12
BRANCH   3  26
ATOM     26  O1  UNK     1      -1.304  33.723 230.809  1.00  0.00    -0.315 OA
BRANCH  26  27
ATOM     27  C16 UNK     1      -1.975  34.157 231.920  1.00  0.00     0.263 C 
ATOM     28  O4  UNK     1      -2.669  33.463 232.651  1.00  0.00    -0.265 OA
BRANCH  27  29
ATOM     29  C18 UNK     1      -1.754  35.649 232.103  1.00  0.00     0.081 C 
ATOM     30  C21 UNK     1      -3.021  36.379 231.664  1.00  0.00     0.020 C 
BRANCH  29  31
ATOM     31  C20 UNK     1      -1.399  35.991 233.557  1.00  0.00     0.010 C 
ATOM     32  C22 UNK     1       0.101  36.161 233.768  1.00  0.00     0.006 C 
ENDBRANCH  29  31
ENDBRANCH  27  29
ENDBRANCH  26  27
ENDBRANCH   3  26
BRANCH   7  33
ATOM     33  O2  UNK     1       1.284  30.398 231.604  1.00  0.00    -0.392 OA
ATOM     34  H21 UNK     1       0.767  29.605 231.826  1.00  0.00     0.210 HD
ENDBRANCH   7  33
TORSDOF 15
ENDMDL
MODEL 8
REMARK VINA RESULT:      -5.4      2.439      7.181
REMARK  15 active torsions:
REMARK  status: ('A' for Active; 'I' for Inactive)
REMARK    1  A    between atoms: O1_1  and  C3_10 
REMARK    2  A    between atoms: O1_1  and  C16_23 
REMARK    3  A    between atoms: O2_2  and  C8_15 
REMARK    4  A    between atoms: O3_3  and  C14_21 
REMARK    5  A    between atoms: O5_5  and  C17_24 
REMARK    6  A    between atoms: O6_6  and  C23_30 
REMARK    7  A    between atoms: C2_9  and  C5_12 
REMARK    8  A    between atoms: C5_12  and  C10_17 
REMARK    9  A    between atoms: C10_17  and  C14_21 
REMARK   10  A    between atoms: C14_21  and  C15_22 
REMARK   11  A    between atoms: C15_22  and  C17_24 
REMARK   12  A    between atoms: C16_23  and  C18_25 
REMARK   13  A    between atoms: C17_24  and  C19_26 
REMARK   14  A    between atoms: C18_25  and  C20_27 
REMARK   15  A    between atoms: C19_26  and  C23_30 
ROOT
ATOM      1  C1  UNK     1      -2.344  35.417 234.178  1.00  0.00     0.053 C 
ATOM      2  C2  UNK     1      -0.865  35.383 234.666  1.00  0.00     0.004 C 
ATOM      3  C3  UNK     1      -2.511  35.143 232.662  1.00  0.00     0.143 C 
ATOM      4  C4  UNK     1      -0.767  35.671 236.193  1.00  0.00     0.009 C 
ATOM      5  C6  UNK     1      -3.215  34.480 235.014  1.00  0.00    -0.053 C 
ATOM      6  C7  UNK     1      -3.992  35.050 232.299  1.00  0.00     0.069 C 
ATOM      7  C8  UNK     1      -4.692  33.920 233.058  1.00  0.00     0.144 C 
ATOM      8  C9  UNK     1      -1.776  34.861 236.964  1.00  0.00    -0.022 C 
ATOM      9  C11 UNK     1      -4.266  33.819 234.495  1.00  0.00     0.012 C 
ATOM     10  C12 UNK     1      -2.868  34.317 236.414  1.00  0.00     0.004 C 
ATOM     11  C13 UNK     1      -0.917  37.148 236.574  1.00  0.00     0.014 C 
ENDROOT
BRANCH   2  12
ATOM     12  C5  UNK     1       0.047  36.313 233.857  1.00  0.00     0.009 C 
BRANCH  12  13
ATOM     13  C10 UNK     1       1.377  35.631 233.539  1.00  0.00     0.032 C 
BRANCH  13  14
ATOM     14  C14 UNK     1       2.486  35.932 234.555  1.00  0.00     0.120 C 
BRANCH  14  15
ATOM     15  O3  UNK     1       2.296  37.262 235.042  1.00  0.00    -0.395 OA
ATOM     16  H24 UNK     1       1.577  37.668 234.527  1.00  0.00     0.210 HD
ENDBRANCH  14  15
BRANCH  14  17
ATOM     17  C15 UNK     1       2.557  34.978 235.758  1.00  0.00     0.064 C 
BRANCH  17  18
ATOM     18  C17 UNK     1       3.880  35.004 236.533  1.00  0.00     0.130 C 
BRANCH  18  19
ATOM     19  O5  UNK     1       4.848  35.752 235.800  1.00  0.00    -0.395 OA
ATOM     20  H32 UNK     1       4.989  35.309 234.946  1.00  0.00     0.210 HD
ENDBRANCH  18  19
BRANCH  18  21
ATOM     21  C19 UNK     1       3.693  35.675 237.893  1.00  0.00     0.141 C 
BRANCH  21  22
ATOM     22  C23 UNK     1       4.234  37.084 237.883  1.00  0.00     0.141 C 
ATOM     23  O7  UNK     1       3.611  38.052 237.467  1.00  0.00    -0.650 OA
BRANCH  22  24
ATOM     24  O6  UNK     1       5.485  37.168 238.401  1.00  0.00    -0.776 OA
ATOM     25  H36 UNK     1       5.926  36.292 238.439  1.00  0.00     0.167 HD
ENDBRANCH  22  24
ENDBRANCH  21  22
ENDBRANCH  18  21
ENDBRANCH  17  18
ENDBRANCH  14  17
ENDBRANCH  13  14
ENDBRANCH  12  13
ENDBRANCH   2  12
BRANCH   3  26
ATOM     26  O1  UNK     1      -1.875  33.928 232.273  1.00  0.00    -0.315 OA
BRANCH  26  27
ATOM     27  C16 UNK     1      -1.252  33.949 231.054  1.00  0.00     0.263 C 
ATOM     28  O4  UNK     1      -1.743  34.354 230.009  1.00  0.00    -0.265 OA
BRANCH  27  29
ATOM     29  C18 UNK     1       0.144  33.363 231.180  1.00  0.00     0.081 C 
ATOM     30  C21 UNK     1       0.015  31.864 231.433  1.00  0.00     0.020 C 
BRANCH  29  31
ATOM     31  C20 UNK     1       0.984  33.639 229.925  1.00  0.00     0.010 C 
ATOM     32  C22 UNK     1       1.576  35.043 229.913  1.00  0.00     0.006 C 
ENDBRANCH  29  31
ENDBRANCH  27  29
ENDBRANCH  26  27
ENDBRANCH   3  26
BRANCH   7  33
ATOM     33  O2  UNK     1      -6.098  34.144 232.984  1.00  0.00    -0.392 OA
ATOM     34  H21 UNK     1      -6.543  33.448 233.499  1.00  0.00     0.210 HD
ENDBRANCH   7  33
TORSDOF 15
ENDMDL
MODEL 9
REMARK VINA RESULT:      -5.4      2.408      5.130
REMARK  15 active torsions:
REMARK  status: ('A' for Active; 'I' for Inactive)
REMARK    1  A    between atoms: O1_1  and  C3_10 
REMARK    2  A    between atoms: O1_1  and  C16_23 
REMARK    3  A    between atoms: O2_2  and  C8_15 
REMARK    4  A    between atoms: O3_3  and  C14_21 
REMARK    5  A    between atoms: O5_5  and  C17_24 
REMARK    6  A    between atoms: O6_6  and  C23_30 
REMARK    7  A    between atoms: C2_9  and  C5_12 
REMARK    8  A    between atoms: C5_12  and  C10_17 
REMARK    9  A    between atoms: C10_17  and  C14_21 
REMARK   10  A    between atoms: C14_21  and  C15_22 
REMARK   11  A    between atoms: C15_22  and  C17_24 
REMARK   12  A    between atoms: C16_23  and  C18_25 
REMARK   13  A    between atoms: C17_24  and  C19_26 
REMARK   14  A    between atoms: C18_25  and  C20_27 
REMARK   15  A    between atoms: C19_26  and  C23_30 
ROOT
ATOM      1  C1  UNK     1       1.454  35.282 237.528  1.00  0.00     0.053 C 
ATOM      2  C2  UNK     1       0.721  35.477 236.167  1.00  0.00     0.004 C 
ATOM      3  C3  UNK     1       1.849  33.812 237.824  1.00  0.00     0.143 C 
ATOM      4  C4  UNK     1       0.347  36.970 235.935  1.00  0.00     0.009 C 
ATOM      5  C6  UNK     1       2.658  36.217 237.637  1.00  0.00    -0.053 C 
ATOM      6  C7  UNK     1       2.686  33.735 239.099  1.00  0.00     0.069 C 
ATOM      7  C8  UNK     1       3.976  34.551 238.981  1.00  0.00     0.144 C 
ATOM      8  C9  UNK     1       1.514  37.875 236.236  1.00  0.00    -0.022 C 
ATOM      9  C11 UNK     1       3.780  35.872 238.295  1.00  0.00     0.012 C 
ATOM     10  C12 UNK     1       2.557  37.514 236.993  1.00  0.00     0.004 C 
ATOM     11  C13 UNK     1      -0.874  37.452 236.725  1.00  0.00     0.014 C 
ENDROOT
BRANCH   2  12
ATOM     12  C5  UNK     1      -0.499  34.561 236.015  1.00  0.00     0.009 C 
BRANCH  12  13
ATOM     13  C10 UNK     1      -0.588  34.002 234.596  1.00  0.00     0.032 C 
BRANCH  13  14
ATOM     14  C14 UNK     1      -1.929  34.279 233.904  1.00  0.00     0.120 C 
BRANCH  14  15
ATOM     15  O3  UNK     1      -2.647  35.234 234.689  1.00  0.00    -0.395 OA
ATOM     16  H24 UNK     1      -2.014  35.657 235.295  1.00  0.00     0.210 HD
ENDBRANCH  14  15
BRANCH  14  17
ATOM     17  C15 UNK     1      -1.834  34.805 232.464  1.00  0.00     0.064 C 
BRANCH  17  18
ATOM     18  C17 UNK     1      -2.412  36.208 232.243  1.00  0.00     0.130 C 
BRANCH  18  19
ATOM     19  O5  UNK     1      -1.444  37.187 232.614  1.00  0.00    -0.395 OA
ATOM     20  H32 UNK     1      -1.786  37.672 233.385  1.00  0.00     0.210 HD
ENDBRANCH  18  19
BRANCH  18  21
ATOM     21  C19 UNK     1      -2.759  36.420 230.769  1.00  0.00     0.141 C 
BRANCH  21  22
ATOM     22  C23 UNK     1      -1.583  36.984 230.010  1.00  0.00     0.141 C 
ATOM     23  O7  UNK     1      -0.649  36.309 229.596  1.00  0.00    -0.650 OA
BRANCH  22  24
ATOM     24  O6  UNK     1      -1.677  38.323 229.818  1.00  0.00    -0.776 OA
ATOM     25  H36 UNK     1      -0.982  38.814 230.306  1.00  0.00     0.167 HD
ENDBRANCH  22  24
ENDBRANCH  21  22
ENDBRANCH  18  21
ENDBRANCH  17  18
ENDBRANCH  14  17
ENDBRANCH  13  14
ENDBRANCH  12  13
ENDBRANCH   2  12
BRANCH   3  26
ATOM     26  O1  UNK     1       2.601  33.244 236.754  1.00  0.00    -0.315 OA
BRANCH  26  27
ATOM     27  C16 UNK     1       2.167  32.026 236.306  1.00  0.00     0.263 C 
ATOM     28  O4  UNK     1       1.491  31.230 236.945  1.00  0.00    -0.265 OA
BRANCH  27  29
ATOM     29  C18 UNK     1       2.676  31.787 234.894  1.00  0.00     0.081 C 
ATOM     30  C21 UNK     1       4.082  31.200 234.983  1.00  0.00     0.020 C 
BRANCH  29  31
ATOM     31  C20 UNK     1       1.739  30.856 234.111  1.00  0.00     0.010 C 
ATOM     32  C22 UNK     1       1.423  31.383 232.716  1.00  0.00     0.006 C 
ENDBRANCH  29  31
ENDBRANCH  27  29
ENDBRANCH  26  27
ENDBRANCH   3  26
BRANCH   7  33
ATOM     33  O2  UNK     1       4.488  34.758 240.295  1.00  0.00    -0.392 OA
ATOM     34  H21 UNK     1       3.751  35.034 240.867  1.00  0.00     0.210 HD
ENDBRANCH   7  33
TORSDOF 15
ENDMDL
