MODEL 1
REMARK VINA RESULT:      -5.8      0.000      0.000
REMARK  1 active torsions:
REMARK  status: ('A' for Active; 'I' for Inactive)
REMARK       I    between atoms: N2_4  and  C3_13 
REMARK    1  A    between atoms: N2_4  and  C4_14 
ROOT
ATOM      1 Cl1  UNK     1      -4.017  38.478 227.421  1.00  0.00    -0.082 Cl
ATOM      2  S1  UNK     1       1.209  42.192 227.399  1.00  0.00     0.068 SA
ATOM      3  N4  UNK     1       0.377  41.077 228.306  1.00  0.00    -0.309 N 
ATOM      4  H4  UNK     1       0.635  40.727 229.228  1.00  0.00     0.176 HD
ATOM      5  N5  UNK     1       0.240  42.284 226.054  1.00  0.00    -0.310 N 
ATOM      6  H5  UNK     1       0.393  42.868 225.232  1.00  0.00     0.176 HD
ATOM      7  C4  UNK     1      -1.699  39.799 227.974  1.00  0.00     0.100 A 
ATOM      8  C5  UNK     1      -0.703  40.728 227.588  1.00  0.00     0.096 A 
ATOM      9  C6  UNK     1      -0.784  41.440 226.260  1.00  0.00     0.069 A 
ATOM     10  C7  UNK     1      -2.740  39.597 227.051  1.00  0.00     0.063 A 
ATOM     11  C8  UNK     1      -1.857  41.195 225.370  1.00  0.00     0.034 A 
ATOM     12  C9  UNK     1      -2.816  40.264 225.807  1.00  0.00     0.028 A 
ENDROOT
BRANCH   7  13
ATOM     13  N2  UNK     1      -1.650  39.121 229.204  1.00  0.00    -0.188 N 
ATOM     14  C3  UNK     1      -1.379  37.818 229.420  1.00  0.00     0.674 A 
ATOM     15  N1  UNK     1      -1.959  37.235 230.506  1.00  0.00    -0.225 N 
ATOM     16  N3  UNK     1      -0.609  37.044 228.692  1.00  0.00    -0.225 N 
ATOM     17  C1  UNK     1      -1.576  35.859 230.603  1.00  0.00     0.158 A 
ATOM     18  H5  UNK     1      -2.579  37.692 231.163  1.00  0.00     0.177 HD
ATOM     19  C2  UNK     1      -0.663  35.718 229.377  1.00  0.00     0.158 A 
ATOM     20  H3  UNK     1      -0.090  37.292 227.849  1.00  0.00     0.177 HD
ATOM     21  H6  UNK     1      -2.009  39.669 229.982  1.00  0.00     0.184 HD
ENDBRANCH   7  13
TORSDOF 1
ENDMDL
MODEL 2
REMARK VINA RESULT:      -5.7      6.838      9.545
REMARK  1 active torsions:
REMARK  status: ('A' for Active; 'I' for Inactive)
REMARK       I    between atoms: N2_4  and  C3_13 
REMARK    1  A    between atoms: N2_4  and  C4_14 
ROOT
ATOM      1 Cl1  UNK     1      -1.213  38.152 236.715  1.00  0.00    -0.082 Cl
ATOM      2  S1  UNK     1       3.442  33.805 235.991  1.00  0.00     0.068 SA
ATOM      3  N4  UNK     1       1.877  34.156 235.564  1.00  0.00    -0.309 N 
ATOM      4  H4  UNK     1       1.265  33.593 234.974  1.00  0.00     0.176 HD
ATOM      5  N5  UNK     1       3.811  35.121 236.935  1.00  0.00    -0.310 N 
ATOM      6  H5  UNK     1       4.696  35.304 237.406  1.00  0.00     0.176 HD
ATOM      7  C4  UNK     1       0.338  36.012 236.056  1.00  0.00     0.100 A 
ATOM      8  C5  UNK     1       1.574  35.328 236.147  1.00  0.00     0.096 A 
ATOM      9  C6  UNK     1       2.714  35.896 236.956  1.00  0.00     0.069 A 
ATOM     10  C7  UNK     1       0.257  37.227 236.757  1.00  0.00     0.063 A 
ATOM     11  C8  UNK     1       2.574  37.126 237.642  1.00  0.00     0.034 A 
ATOM     12  C9  UNK     1       1.325  37.760 237.515  1.00  0.00     0.028 A 
ENDROOT
BRANCH   7  13
ATOM     13  N2  UNK     1      -0.741  35.507 235.310  1.00  0.00    -0.188 N 
ATOM     14  C3  UNK     1      -1.168  35.911 234.097  1.00  0.00     0.674 A 
ATOM     15  N1  UNK     1      -2.496  35.773 233.828  1.00  0.00    -0.225 N 
ATOM     16  N3  UNK     1      -0.435  36.424 233.136  1.00  0.00    -0.225 N 
ATOM     17  C1  UNK     1      -2.794  36.239 232.508  1.00  0.00     0.158 A 
ATOM     18  H5  UNK     1      -3.192  35.398 234.461  1.00  0.00     0.177 HD
ATOM     19  C2  UNK     1      -1.405  36.685 232.031  1.00  0.00     0.158 A 
ATOM     20  H3  UNK     1       0.569  36.604 233.143  1.00  0.00     0.177 HD
ATOM     21  H6  UNK     1      -1.333  34.871 235.837  1.00  0.00     0.184 HD
ENDBRANCH   7  13
TORSDOF 1
ENDMDL
MODEL 3
REMARK VINA RESULT:      -5.7      7.511      9.391
REMARK  1 active torsions:
REMARK  status: ('A' for Active; 'I' for Inactive)
REMARK       I    between atoms: N2_4  and  C3_13 
REMARK    1  A    between atoms: N2_4  and  C4_14 
ROOT
ATOM      1 Cl1  UNK     1       0.449  37.975 237.557  1.00  0.00    -0.082 Cl
ATOM      2  S1  UNK     1       0.929  34.907 231.948  1.00  0.00     0.068 SA
ATOM      3  N4  UNK     1       1.824  35.613 233.155  1.00  0.00    -0.309 N 
ATOM      4  H4  UNK     1       2.841  35.683 233.198  1.00  0.00     0.176 HD
ATOM      5  N5  UNK     1      -0.611  35.150 232.519  1.00  0.00    -0.310 N 
ATOM      6  H5  UNK     1      -1.480  34.862 232.070  1.00  0.00     0.176 HD
ATOM      7  C4  UNK     1       1.267  36.750 235.265  1.00  0.00     0.100 A 
ATOM      8  C5  UNK     1       0.948  36.072 234.064  1.00  0.00     0.096 A 
ATOM      9  C6  UNK     1      -0.488  35.800 233.688  1.00  0.00     0.069 A 
ATOM     10  C7  UNK     1       0.174  37.137 236.059  1.00  0.00     0.063 A 
ATOM     11  C8  UNK     1      -1.549  36.215 234.529  1.00  0.00     0.034 A 
ATOM     12  C9  UNK     1      -1.171  36.882 235.708  1.00  0.00     0.028 A 
ENDROOT
BRANCH   7  13
ATOM     13  N2  UNK     1       2.595  37.017 235.641  1.00  0.00    -0.188 N 
ATOM     14  C3  UNK     1       3.239  36.604 236.750  1.00  0.00     0.674 A 
ATOM     15  N1  UNK     1       4.222  37.414 237.236  1.00  0.00    -0.225 N 
ATOM     16  N3  UNK     1       3.023  35.496 237.419  1.00  0.00    -0.225 N 
ATOM     17  C1  UNK     1       4.812  36.842 238.407  1.00  0.00     0.158 A 
ATOM     18  H5  UNK     1       4.507  38.300 236.838  1.00  0.00     0.177 HD
ATOM     19  C2  UNK     1       4.005  35.543 238.543  1.00  0.00     0.158 A 
ATOM     20  H3  UNK     1       2.339  34.766 237.216  1.00  0.00     0.177 HD
ATOM     21  H6  UNK     1       3.043  37.724 235.064  1.00  0.00     0.184 HD
ENDBRANCH   7  13
TORSDOF 1
ENDMDL
MODEL 4
REMARK VINA RESULT:      -5.7      2.616      4.623
REMARK  1 active torsions:
REMARK  status: ('A' for Active; 'I' for Inactive)
REMARK       I    between atoms: N2_4  and  C3_13 
REMARK    1  A    between atoms: N2_4  and  C4_14 
ROOT
ATOM      1 Cl1  UNK     1      -2.613  41.601 225.759  1.00  0.00    -0.082 Cl
ATOM      2  S1  UNK     1      -2.172  36.804 229.988  1.00  0.00     0.068 SA
ATOM      3  N4  UNK     1      -1.573  38.308 229.621  1.00  0.00    -0.309 N 
ATOM      4  H4  UNK     1      -0.868  38.827 230.144  1.00  0.00     0.176 HD
ATOM      5  N5  UNK     1      -3.254  36.587 228.747  1.00  0.00    -0.310 N 
ATOM      6  H5  UNK     1      -3.850  35.774 228.593  1.00  0.00     0.176 HD
ATOM      7  C4  UNK     1      -2.001  39.935 227.826  1.00  0.00     0.100 A 
ATOM      8  C5  UNK     1      -2.200  38.707 228.502  1.00  0.00     0.096 A 
ATOM      9  C6  UNK     1      -3.190  37.692 227.987  1.00  0.00     0.069 A 
ATOM     10  C7  UNK     1      -2.775  40.130 226.669  1.00  0.00     0.063 A 
ATOM     11  C8  UNK     1      -3.943  37.945 226.815  1.00  0.00     0.034 A 
ATOM     12  C9  UNK     1      -3.704  39.179 226.186  1.00  0.00     0.028 A 
ENDROOT
BRANCH   7  13
ATOM     13  N2  UNK     1      -1.085  40.899 228.282  1.00  0.00    -0.188 N 
ATOM     14  C3  UNK     1       0.212  41.033 227.941  1.00  0.00     0.674 A 
ATOM     15  N1  UNK     1       1.049  41.562 228.877  1.00  0.00    -0.225 N 
ATOM     16  N3  UNK     1       0.761  40.709 226.794  1.00  0.00    -0.225 N 
ATOM     17  C1  UNK     1       2.384  41.645 228.369  1.00  0.00     0.158 A 
ATOM     18  H5  UNK     1       0.783  41.859 229.807  1.00  0.00     0.177 HD
ATOM     19  C2  UNK     1       2.202  41.066 226.959  1.00  0.00     0.158 A 
ATOM     20  H3  UNK     1       0.306  40.305 225.974  1.00  0.00     0.177 HD
ATOM     21  H6  UNK     1      -1.432  41.446 229.066  1.00  0.00     0.184 HD
ENDBRANCH   7  13
TORSDOF 1
ENDMDL
MODEL 5
REMARK VINA RESULT:      -5.4      9.499     11.616
REMARK  1 active torsions:
REMARK  status: ('A' for Active; 'I' for Inactive)
REMARK       I    between atoms: N2_4  and  C3_13 
REMARK    1  A    between atoms: N2_4  and  C4_14 
ROOT
ATOM      1 Cl1  UNK     1       1.546  37.930 236.227  1.00  0.00    -0.082 Cl
ATOM      2  S1  UNK     1       4.270  33.444 239.909  1.00  0.00     0.068 SA
ATOM      3  N4  UNK     1       2.970  33.738 238.918  1.00  0.00    -0.309 N 
ATOM      4  H4  UNK     1       2.221  33.087 238.687  1.00  0.00     0.176 HD
ATOM      5  N5  UNK     1       5.058  34.903 239.830  1.00  0.00    -0.310 N 
ATOM      6  H5  UNK     1       5.925  35.154 240.305  1.00  0.00     0.176 HD
ATOM      7  C4  UNK     1       2.215  35.679 237.608  1.00  0.00     0.100 A 
ATOM      8  C5  UNK     1       3.100  35.001 238.481  1.00  0.00     0.096 A 
ATOM      9  C6  UNK     1       4.331  35.688 239.019  1.00  0.00     0.069 A 
ATOM     10  C7  UNK     1       2.561  37.003 237.290  1.00  0.00     0.063 A 
ATOM     11  C8  UNK     1       4.629  37.026 238.663  1.00  0.00     0.034 A 
ATOM     12  C9  UNK     1       3.714  37.648 237.795  1.00  0.00     0.028 A 
ENDROOT
BRANCH   7  13
ATOM     13  N2  UNK     1       1.061  35.064 237.091  1.00  0.00    -0.188 N 
ATOM     14  C3  UNK     1       0.914  34.453 235.899  1.00  0.00     0.674 A 
ATOM     15  N1  UNK     1      -0.326  34.483 235.334  1.00  0.00    -0.225 N 
ATOM     16  N3  UNK     1       1.843  33.825 235.217  1.00  0.00    -0.225 N 
ATOM     17  C1  UNK     1      -0.324  33.793 234.080  1.00  0.00     0.158 A 
ATOM     18  H5  UNK     1      -1.145  34.927 235.729  1.00  0.00     0.177 HD
ATOM     19  C2  UNK     1       1.141  33.346 233.989  1.00  0.00     0.158 A 
ATOM     20  H3  UNK     1       2.823  33.693 235.469  1.00  0.00     0.177 HD
ATOM     21  H6  UNK     1       0.225  35.250 237.639  1.00  0.00     0.184 HD
ENDBRANCH   7  13
TORSDOF 1
ENDMDL
MODEL 6
REMARK VINA RESULT:      -5.4      9.750     11.158
REMARK  1 active torsions:
REMARK  status: ('A' for Active; 'I' for Inactive)
REMARK       I    between atoms: N2_4  and  C3_13 
REMARK    1  A    between atoms: N2_4  and  C4_14 
ROOT
ATOM      1 Cl1  UNK     1       3.044  37.490 237.535  1.00  0.00    -0.082 Cl
ATOM      2  S1  UNK     1      -2.151  34.128 235.864  1.00  0.00     0.068 SA
ATOM      3  N4  UNK     1      -0.523  33.995 236.158  1.00  0.00    -0.309 N 
ATOM      4  H4  UNK     1       0.039  33.146 236.103  1.00  0.00     0.176 HD
ATOM      5  N5  UNK     1      -2.385  35.750 236.133  1.00  0.00    -0.310 N 
ATOM      6  H5  UNK     1      -3.266  36.259 236.060  1.00  0.00     0.176 HD
ATOM      7  C4  UNK     1       1.240  35.583 236.812  1.00  0.00     0.100 A 
ATOM      8  C5  UNK     1      -0.090  35.225 236.482  1.00  0.00     0.096 A 
ATOM      9  C6  UNK     1      -1.188  36.259 236.467  1.00  0.00     0.069 A 
ATOM     10  C7  UNK     1       1.451  36.938 237.116  1.00  0.00     0.063 A 
ATOM     11  C8  UNK     1      -0.914  37.612 236.782  1.00  0.00     0.034 A 
ATOM     12  C9  UNK     1       0.423  37.908 237.102  1.00  0.00     0.028 A 
ENDROOT
BRANCH   7  13
ATOM     13  N2  UNK     1       2.282  34.641 236.833  1.00  0.00    -0.188 N 
ATOM     14  C3  UNK     1       2.681  33.874 237.868  1.00  0.00     0.674 A 
ATOM     15  N1  UNK     1       3.997  33.523 237.909  1.00  0.00    -0.225 N 
ATOM     16  N3  UNK     1       1.933  33.422 238.846  1.00  0.00    -0.225 N 
ATOM     17  C1  UNK     1       4.266  32.711 239.057  1.00  0.00     0.158 A 
ATOM     18  H5  UNK     1       4.702  33.792 237.234  1.00  0.00     0.177 HD
ATOM     19  C2  UNK     1       2.874  32.638 239.701  1.00  0.00     0.158 A 
ATOM     20  H3  UNK     1       0.934  33.571 238.991  1.00  0.00     0.177 HD
ATOM     21  H6  UNK     1       2.874  34.675 236.008  1.00  0.00     0.184 HD
ENDBRANCH   7  13
TORSDOF 1
ENDMDL
MODEL 7
REMARK VINA RESULT:      -5.3      8.835     10.924
REMARK  1 active torsions:
REMARK  status: ('A' for Active; 'I' for Inactive)
REMARK       I    between atoms: N2_4  and  C3_13 
REMARK    1  A    between atoms: N2_4  and  C4_14 
ROOT
ATOM      1 Cl1  UNK     1       4.399  36.025 238.636  1.00  0.00    -0.082 Cl
ATOM      2  S1  UNK     1       0.682  35.465 233.443  1.00  0.00     0.068 SA
ATOM      3  N4  UNK     1       1.854  34.688 234.325  1.00  0.00    -0.309 N 
ATOM      4  H4  UNK     1       2.264  33.776 234.124  1.00  0.00     0.176 HD
ATOM      5  N5  UNK     1       0.502  36.861 234.324  1.00  0.00    -0.310 N 
ATOM      6  H5  UNK     1      -0.135  37.631 234.122  1.00  0.00     0.176 HD
ATOM      7  C4  UNK     1       3.112  35.237 236.367  1.00  0.00     0.100 A 
ATOM      8  C5  UNK     1       2.158  35.496 235.354  1.00  0.00     0.096 A 
ATOM      9  C6  UNK     1       1.361  36.777 235.353  1.00  0.00     0.069 A 
ATOM     10  C7  UNK     1       3.256  36.237 237.344  1.00  0.00     0.063 A 
ATOM     11  C8  UNK     1       1.549  37.749 236.365  1.00  0.00     0.034 A 
ATOM     12  C9  UNK     1       2.509  37.438 237.343  1.00  0.00     0.028 A 
ENDROOT
BRANCH   7  13
ATOM     13  N2  UNK     1       3.869  34.053 236.394  1.00  0.00    -0.188 N 
ATOM     14  C3  UNK     1       3.600  32.915 237.066  1.00  0.00     0.674 A 
ATOM     15  N1  UNK     1       4.664  32.166 237.469  1.00  0.00    -0.225 N 
ATOM     16  N3  UNK     1       2.414  32.446 237.375  1.00  0.00    -0.225 N 
ATOM     17  C1  UNK     1       4.221  30.995 238.162  1.00  0.00     0.158 A 
ATOM     18  H5  UNK     1       5.639  32.390 237.312  1.00  0.00     0.177 HD
ATOM     19  C2  UNK     1       2.698  31.175 238.107  1.00  0.00     0.158 A 
ATOM     20  H3  UNK     1       1.504  32.856 237.163  1.00  0.00     0.177 HD
ATOM     21  H6  UNK     1       4.787  34.151 235.970  1.00  0.00     0.184 HD
ENDBRANCH   7  13
TORSDOF 1
ENDMDL
MODEL 8
REMARK VINA RESULT:      -5.2      7.179      9.006
REMARK  1 active torsions:
REMARK  status: ('A' for Active; 'I' for Inactive)
REMARK       I    between atoms: N2_4  and  C3_13 
REMARK    1  A    between atoms: N2_4  and  C4_14 
ROOT
ATOM      1 Cl1  UNK     1      -2.042  35.802 234.667  1.00  0.00    -0.082 Cl
ATOM      2  S1  UNK     1       3.857  36.289 237.128  1.00  0.00     0.068 SA
ATOM      3  N4  UNK     1       2.926  35.398 236.081  1.00  0.00    -0.309 N 
ATOM      4  H4  UNK     1       3.225  34.591 235.534  1.00  0.00     0.176 HD
ATOM      5  N5  UNK     1       2.753  37.414 237.649  1.00  0.00    -0.310 N 
ATOM      6  H5  UNK     1       2.919  38.167 238.315  1.00  0.00     0.176 HD
ATOM      7  C4  UNK     1       0.579  35.511 235.350  1.00  0.00     0.100 A 
ATOM      8  C5  UNK     1       1.700  35.948 236.096  1.00  0.00     0.096 A 
ATOM      9  C6  UNK     1       1.599  37.136 237.021  1.00  0.00     0.069 A 
ATOM     10  C7  UNK     1      -0.603  36.249 235.533  1.00  0.00     0.063 A 
ATOM     11  C8  UNK     1       0.379  37.842 237.164  1.00  0.00     0.034 A 
ATOM     12  C9  UNK     1      -0.699  37.363 236.399  1.00  0.00     0.028 A 
ENDROOT
BRANCH   7  13
ATOM     13  N2  UNK     1       0.644  34.409 234.482  1.00  0.00    -0.188 N 
ATOM     14  C3  UNK     1       0.794  34.419 233.142  1.00  0.00     0.674 A 
ATOM     15  N1  UNK     1       0.235  33.390 232.446  1.00  0.00    -0.225 N 
ATOM     16  N3  UNK     1       1.427  35.321 232.429  1.00  0.00    -0.225 N 
ATOM     17  C1  UNK     1       0.479  33.538 231.044  1.00  0.00     0.158 A 
ATOM     18  H5  UNK     1      -0.287  32.620 232.847  1.00  0.00     0.177 HD
ATOM     19  C2  UNK     1       1.284  34.845 231.020  1.00  0.00     0.158 A 
ATOM     20  H3  UNK     1       1.908  36.157 232.761  1.00  0.00     0.177 HD
ATOM     21  H6  UNK     1       0.400  33.528 234.928  1.00  0.00     0.184 HD
ENDBRANCH   7  13
TORSDOF 1
ENDMDL
MODEL 9
REMARK VINA RESULT:      -5.2      7.392     10.225
REMARK  1 active torsions:
REMARK  status: ('A' for Active; 'I' for Inactive)
REMARK       I    between atoms: N2_4  and  C3_13 
REMARK    1  A    between atoms: N2_4  and  C4_14 
ROOT
ATOM      1 Cl1  UNK     1       1.714  32.703 234.145  1.00  0.00    -0.082 Cl
ATOM      2  S1  UNK     1       3.999  37.423 237.831  1.00  0.00     0.068 SA
ATOM      3  N4  UNK     1       3.138  37.122 236.444  1.00  0.00    -0.309 N 
ATOM      4  H4  UNK     1       2.743  37.815 235.809  1.00  0.00     0.176 HD
ATOM      5  N5  UNK     1       4.317  35.877 238.344  1.00  0.00    -0.310 N 
ATOM      6  H5  UNK     1       4.835  35.606 239.179  1.00  0.00     0.176 HD
ATOM      7  C4  UNK     1       2.417  35.077 235.281  1.00  0.00     0.100 A 
ATOM      8  C5  UNK     1       3.063  35.786 236.323  1.00  0.00     0.096 A 
ATOM      9  C6  UNK     1       3.759  35.052 237.443  1.00  0.00     0.069 A 
ATOM     10  C7  UNK     1       2.473  33.675 235.369  1.00  0.00     0.063 A 
ATOM     11  C8  UNK     1       3.781  33.637 237.478  1.00  0.00     0.034 A 
ATOM     12  C9  UNK     1       3.124  32.987 236.418  1.00  0.00     0.028 A 
ENDROOT
BRANCH   7  13
ATOM     13  N2  UNK     1       1.762  35.733 234.226  1.00  0.00    -0.188 N 
ATOM     14  C3  UNK     1       0.449  36.020 234.120  1.00  0.00     0.674 A 
ATOM     15  N1  UNK     1      -0.076  36.071 232.863  1.00  0.00    -0.225 N 
ATOM     16  N3  UNK     1      -0.386  36.261 235.104  1.00  0.00    -0.225 N 
ATOM     17  C1  UNK     1      -1.471  36.388 232.913  1.00  0.00     0.158 A 
ATOM     18  H5  UNK     1       0.432  35.908 232.003  1.00  0.00     0.177 HD
ATOM     19  C2  UNK     1      -1.693  36.516 234.426  1.00  0.00     0.158 A 
ATOM     20  H3  UNK     1      -0.187  36.271 236.104  1.00  0.00     0.177 HD
ATOM     21  H6  UNK     1       2.346  35.859 233.404  1.00  0.00     0.184 HD
ENDBRANCH   7  13
TORSDOF 1
ENDMDL
