MODEL 1
REMARK VINA RESULT:      -6.1      0.000      0.000
REMARK  7 active torsions:
REMARK  status: ('A' for Active; 'I' for Inactive)
REMARK    1  A    between atoms: O2_2  and  C6_11 
REMARK       I    between atoms: N1_3  and  C2_7 
REMARK    2  A    between atoms: N1_3  and  C3_8 
REMARK    3  A    between atoms: N1_3  and  C5_10 
REMARK    4  A    between atoms: C1_6  and  C2_7 
REMARK    5  A    between atoms: C1_6  and  C4_9 
REMARK    6  A    between atoms: C1_6  and  C6_11 
REMARK    7  A    between atoms: C3_8  and  C7_12 
ROOT
ATOM      1  O1  UNK     1       2.905  34.540 239.376  1.00  0.00    -0.273 OA
ATOM      2  N1  UNK     1       3.604  33.432 237.469  1.00  0.00    -0.348 N 
ATOM      3  C2  UNK     1       3.184  34.567 238.171  1.00  0.00     0.230 C 
ENDROOT
BRANCH   3   4
ATOM      4  C1  UNK     1       3.090  35.896 237.397  1.00  0.00     0.134 C 
BRANCH   4   5
ATOM      5  C4  UNK     1       1.645  36.297 237.147  1.00  0.00    -0.043 A 
ATOM      6  C8  UNK     1       1.318  37.638 237.130  1.00  0.00     0.008 A 
ATOM      7  C13 UNK     1      -0.008  38.007 236.900  1.00  0.00     0.001 A 
ATOM      8  C15 UNK     1      -0.978  37.028 236.690  1.00  0.00     0.000 A 
ATOM      9  C14 UNK     1      -0.623  35.679 236.711  1.00  0.00     0.001 A 
ATOM     10  C9  UNK     1       0.703  35.310 236.941  1.00  0.00     0.008 A 
ENDBRANCH   4   5
BRANCH   4  11
ATOM     11  C6  UNK     1       3.806  37.034 238.146  1.00  0.00     0.183 C 
BRANCH  11  12
ATOM     12  O2  UNK     1       4.838  37.585 237.335  1.00  0.00    -0.400 OA
ATOM     13  H18 UNK     1       4.567  38.490 237.105  1.00  0.00     0.209 HD
ENDBRANCH  11  12
ENDBRANCH   4  11
ENDBRANCH   3   4
BRANCH   2  14
ATOM     14  C3  UNK     1       3.951  33.381 236.051  1.00  0.00     0.164 C 
BRANCH  14  15
ATOM     15  C7  UNK     1       2.868  32.733 235.230  1.00  0.00    -0.038 A 
ATOM     16  C11 UNK     1       2.864  31.360 235.068  1.00  0.00     0.025 A 
ATOM     17  C16 UNK     1       1.846  30.812 234.303  1.00  0.00     0.088 A 
ATOM     18  N2  UNK     1       0.868  31.536 233.715  1.00  0.00    -0.375 N 
ATOM     19  C17 UNK     1       0.915  32.874 233.904  1.00  0.00     0.088 A 
ATOM     20  H2  UNK     1       0.135  31.098 233.158  1.00  0.00     0.164 HD
ATOM     21  C12 UNK     1       1.889  33.518 234.648  1.00  0.00     0.025 A 
ENDBRANCH  14  15
ENDBRANCH   2  14
BRANCH   2  22
ATOM     22  C5  UNK     1       3.786  32.177 238.190  1.00  0.00     0.122 C 
ATOM     23  C10 UNK     1       5.187  31.630 238.007  1.00  0.00     0.026 C 
ENDBRANCH   2  22
TORSDOF 7
ENDMDL
MODEL 2
REMARK VINA RESULT:      -5.9      2.916      6.161
REMARK  7 active torsions:
REMARK  status: ('A' for Active; 'I' for Inactive)
REMARK    1  A    between atoms: O2_2  and  C6_11 
REMARK       I    between atoms: N1_3  and  C2_7 
REMARK    2  A    between atoms: N1_3  and  C3_8 
REMARK    3  A    between atoms: N1_3  and  C5_10 
REMARK    4  A    between atoms: C1_6  and  C2_7 
REMARK    5  A    between atoms: C1_6  and  C4_9 
REMARK    6  A    between atoms: C1_6  and  C6_11 
REMARK    7  A    between atoms: C3_8  and  C7_12 
ROOT
ATOM      1  O1  UNK     1      -1.444  35.052 234.723  1.00  0.00    -0.273 OA
ATOM      2  N1  UNK     1       0.145  36.421 235.699  1.00  0.00    -0.348 N 
ATOM      3  C2  UNK     1      -0.320  35.569 234.692  1.00  0.00     0.230 C 
ENDROOT
BRANCH   3   4
ATOM      4  C1  UNK     1       0.613  35.290 233.499  1.00  0.00     0.134 C 
BRANCH   4   5
ATOM      5  C4  UNK     1       0.993  33.821 233.415  1.00  0.00    -0.043 A 
ATOM      6  C8  UNK     1       0.696  33.119 232.264  1.00  0.00     0.008 A 
ATOM      7  C13 UNK     1       1.043  31.770 232.186  1.00  0.00     0.001 A 
ATOM      8  C15 UNK     1       1.682  31.151 233.260  1.00  0.00     0.000 A 
ATOM      9  C14 UNK     1       1.972  31.881 234.413  1.00  0.00     0.001 A 
ATOM     10  C9  UNK     1       1.624  33.230 234.491  1.00  0.00     0.008 A 
ENDBRANCH   4   5
BRANCH   4  11
ATOM     11  C6  UNK     1      -0.031  35.721 232.169  1.00  0.00     0.183 C 
BRANCH  11  12
ATOM     12  O2  UNK     1      -0.955  36.781 232.389  1.00  0.00    -0.400 OA
ATOM     13  H18 UNK     1      -0.584  37.575 231.967  1.00  0.00     0.209 HD
ENDBRANCH  11  12
ENDBRANCH   4  11
ENDBRANCH   3   4
BRANCH   2  14
ATOM     14  C3  UNK     1       1.454  37.069 235.737  1.00  0.00     0.164 C 
BRANCH  14  15
ATOM     15  C7  UNK     1       2.258  36.641 236.936  1.00  0.00    -0.038 A 
ATOM     16  C11 UNK     1       2.223  35.321 237.346  1.00  0.00     0.025 A 
ATOM     17  C16 UNK     1       2.980  34.978 238.455  1.00  0.00     0.088 A 
ATOM     18  N2  UNK     1       3.742  35.851 239.150  1.00  0.00    -0.375 N 
ATOM     19  C17 UNK     1       3.744  37.130 238.709  1.00  0.00     0.088 A 
ATOM     20  H2  UNK     1       4.286  35.562 239.962  1.00  0.00     0.164 HD
ATOM     21  C12 UNK     1       3.023  37.573 237.614  1.00  0.00     0.025 A 
ENDBRANCH  14  15
ENDBRANCH   2  14
BRANCH   2  22
ATOM     22  C5  UNK     1      -0.744  36.774 236.800  1.00  0.00     0.122 C 
ATOM     23  C10 UNK     1      -1.106  38.244 236.772  1.00  0.00     0.026 C 
ENDBRANCH   2  22
TORSDOF 7
ENDMDL
MODEL 3
REMARK VINA RESULT:      -5.9      2.256      4.106
REMARK  7 active torsions:
REMARK  status: ('A' for Active; 'I' for Inactive)
REMARK    1  A    between atoms: O2_2  and  C6_11 
REMARK       I    between atoms: N1_3  and  C2_7 
REMARK    2  A    between atoms: N1_3  and  C3_8 
REMARK    3  A    between atoms: N1_3  and  C5_10 
REMARK    4  A    between atoms: C1_6  and  C2_7 
REMARK    5  A    between atoms: C1_6  and  C4_9 
REMARK    6  A    between atoms: C1_6  and  C6_11 
REMARK    7  A    between atoms: C3_8  and  C7_12 
ROOT
ATOM      1  O1  UNK     1       1.792  37.153 234.499  1.00  0.00    -0.273 OA
ATOM      2  N1  UNK     1       1.139  34.946 234.729  1.00  0.00    -0.348 N 
ATOM      3  C2  UNK     1       1.399  36.229 235.222  1.00  0.00     0.230 C 
ENDROOT
BRANCH   3   4
ATOM      4  C1  UNK     1       1.162  36.483 236.722  1.00  0.00     0.134 C 
BRANCH   4   5
ATOM      5  C4  UNK     1       2.460  36.428 237.512  1.00  0.00    -0.043 A 
ATOM      6  C8  UNK     1       3.301  37.523 237.492  1.00  0.00     0.008 A 
ATOM      7  C13 UNK     1       4.492  37.474 238.216  1.00  0.00     0.001 A 
ATOM      8  C15 UNK     1       4.818  36.331 238.946  1.00  0.00     0.000 A 
ATOM      9  C14 UNK     1       3.951  35.237 238.952  1.00  0.00     0.001 A 
ATOM     10  C9  UNK     1       2.760  35.287 238.227  1.00  0.00     0.008 A 
ENDBRANCH   4   5
BRANCH   4  11
ATOM     11  C6  UNK     1       0.484  37.845 236.961  1.00  0.00     0.183 C 
BRANCH  11  12
ATOM     12  O2  UNK     1      -0.580  38.035 236.036  1.00  0.00    -0.400 OA
ATOM     13  H18 UNK     1      -1.000  38.884 236.254  1.00  0.00     0.209 HD
ENDBRANCH  11  12
ENDBRANCH   4  11
ENDBRANCH   3   4
BRANCH   2  14
ATOM     14  C3  UNK     1       0.674  33.804 235.513  1.00  0.00     0.164 C 
BRANCH  14  15
ATOM     15  C7  UNK     1       1.670  32.676 235.508  1.00  0.00    -0.038 A 
ATOM     16  C11 UNK     1       1.230  31.377 235.327  1.00  0.00     0.025 A 
ATOM     17  C16 UNK     1       2.187  30.374 235.331  1.00  0.00     0.088 A 
ATOM     18  N2  UNK     1       3.510  30.591 235.500  1.00  0.00    -0.375 N 
ATOM     19  C17 UNK     1       3.890  31.877 235.673  1.00  0.00     0.088 A 
ATOM     20  H2  UNK     1       4.185  29.827 235.498  1.00  0.00     0.164 HD
ATOM     21  C12 UNK     1       3.014  32.950 235.686  1.00  0.00     0.025 A 
ENDBRANCH  14  15
ENDBRANCH   2  14
BRANCH   2  22
ATOM     22  C5  UNK     1       1.271  34.693 233.298  1.00  0.00     0.122 C 
ATOM     23  C10 UNK     1      -0.077  34.456 232.650  1.00  0.00     0.026 C 
ENDBRANCH   2  22
TORSDOF 7
ENDMDL
MODEL 4
REMARK VINA RESULT:      -5.8      2.351      5.291
REMARK  7 active torsions:
REMARK  status: ('A' for Active; 'I' for Inactive)
REMARK    1  A    between atoms: O2_2  and  C6_11 
REMARK       I    between atoms: N1_3  and  C2_7 
REMARK    2  A    between atoms: N1_3  and  C3_8 
REMARK    3  A    between atoms: N1_3  and  C5_10 
REMARK    4  A    between atoms: C1_6  and  C2_7 
REMARK    5  A    between atoms: C1_6  and  C4_9 
REMARK    6  A    between atoms: C1_6  and  C6_11 
REMARK    7  A    between atoms: C3_8  and  C7_12 
ROOT
ATOM      1  O1  UNK     1       2.985  33.815 239.878  1.00  0.00    -0.273 OA
ATOM      2  N1  UNK     1       3.791  35.582 238.621  1.00  0.00    -0.348 N 
ATOM      3  C2  UNK     1       3.142  34.352 238.775  1.00  0.00     0.230 C 
ENDROOT
BRANCH   3   4
ATOM      4  C1  UNK     1       2.593  33.666 237.509  1.00  0.00     0.134 C 
BRANCH   4   5
ATOM      5  C4  UNK     1       3.520  32.563 237.023  1.00  0.00    -0.043 A 
ATOM      6  C8  UNK     1       3.392  32.106 235.727  1.00  0.00     0.008 A 
ATOM      7  C13 UNK     1       4.242  31.093 235.281  1.00  0.00     0.001 A 
ATOM      8  C15 UNK     1       5.203  30.561 236.139  1.00  0.00     0.000 A 
ATOM      9  C14 UNK     1       5.314  31.040 237.444  1.00  0.00     0.001 A 
ATOM     10  C9  UNK     1       4.464  32.052 237.891  1.00  0.00     0.008 A 
ENDBRANCH   4   5
BRANCH   4  11
ATOM     11  C6  UNK     1       1.192  33.077 237.752  1.00  0.00     0.183 C 
BRANCH  11  12
ATOM     12  O2  UNK     1       0.208  34.104 237.694  1.00  0.00    -0.400 OA
ATOM     13  H18 UNK     1      -0.647  33.690 237.898  1.00  0.00     0.209 HD
ENDBRANCH  11  12
ENDBRANCH   4  11
ENDBRANCH   3   4
BRANCH   2  14
ATOM     14  C3  UNK     1       4.017  36.280 237.357  1.00  0.00     0.164 C 
BRANCH  14  15
ATOM     15  C7  UNK     1       2.724  36.686 236.701  1.00  0.00    -0.038 A 
ATOM     16  C11 UNK     1       1.818  37.462 237.400  1.00  0.00     0.025 A 
ATOM     17  C16 UNK     1       0.643  37.809 236.752  1.00  0.00     0.088 A 
ATOM     18  N2  UNK     1       0.337  37.435 235.490  1.00  0.00    -0.375 N 
ATOM     19  C17 UNK     1       1.255  36.677 234.848  1.00  0.00     0.088 A 
ATOM     20  H2  UNK     1      -0.539  37.709 235.046  1.00  0.00     0.164 HD
ATOM     21  C12 UNK     1       2.457  36.277 235.407  1.00  0.00     0.025 A 
ENDBRANCH  14  15
ENDBRANCH   2  14
BRANCH   2  22
ATOM     22  C5  UNK     1       4.247  36.299 239.807  1.00  0.00     0.122 C 
ATOM     23  C10 UNK     1       5.618  35.828 240.246  1.00  0.00     0.026 C 
ENDBRANCH   2  22
TORSDOF 7
ENDMDL
MODEL 5
REMARK VINA RESULT:      -5.8      2.619      5.852
REMARK  7 active torsions:
REMARK  status: ('A' for Active; 'I' for Inactive)
REMARK    1  A    between atoms: O2_2  and  C6_11 
REMARK       I    between atoms: N1_3  and  C2_7 
REMARK    2  A    between atoms: N1_3  and  C3_8 
REMARK    3  A    between atoms: N1_3  and  C5_10 
REMARK    4  A    between atoms: C1_6  and  C2_7 
REMARK    5  A    between atoms: C1_6  and  C4_9 
REMARK    6  A    between atoms: C1_6  and  C6_11 
REMARK    7  A    between atoms: C3_8  and  C7_12 
ROOT
ATOM      1  O1  UNK     1      -1.163  35.380 234.059  1.00  0.00    -0.273 OA
ATOM      2  N1  UNK     1      -0.349  34.877 236.165  1.00  0.00    -0.348 N 
ATOM      3  C2  UNK     1      -0.224  35.017 234.778  1.00  0.00     0.230 C 
ENDROOT
BRANCH   3   4
ATOM      4  C1  UNK     1       1.148  34.718 234.147  1.00  0.00     0.134 C 
BRANCH   4   5
ATOM      5  C4  UNK     1       1.141  33.402 233.386  1.00  0.00    -0.043 A 
ATOM      6  C8  UNK     1       1.505  32.246 234.048  1.00  0.00     0.008 A 
ATOM      7  C13 UNK     1       1.499  31.037 233.350  1.00  0.00     0.001 A 
ATOM      8  C15 UNK     1       1.127  31.009 232.007  1.00  0.00     0.000 A 
ATOM      9  C14 UNK     1       0.761  32.190 231.360  1.00  0.00     0.001 A 
ATOM     10  C9  UNK     1       0.768  33.399 232.058  1.00  0.00     0.008 A 
ENDBRANCH   4   5
BRANCH   4  11
ATOM     11  C6  UNK     1       1.587  35.846 233.197  1.00  0.00     0.183 C 
BRANCH  11  12
ATOM     12  O2  UNK     1       2.494  36.722 233.857  1.00  0.00    -0.400 OA
ATOM     13  H18 UNK     1       2.003  37.533 234.071  1.00  0.00     0.209 HD
ENDBRANCH  11  12
ENDBRANCH   4  11
ENDBRANCH   3   4
BRANCH   2  14
ATOM     14  C3  UNK     1       0.707  34.455 237.082  1.00  0.00     0.164 C 
BRANCH  14  15
ATOM     15  C7  UNK     1       1.857  35.426 237.100  1.00  0.00    -0.038 A 
ATOM     16  C11 UNK     1       1.611  36.772 237.294  1.00  0.00     0.025 A 
ATOM     17  C16 UNK     1       2.703  37.625 237.303  1.00  0.00     0.088 A 
ATOM     18  N2  UNK     1       3.981  37.219 237.134  1.00  0.00    -0.375 N 
ATOM     19  C17 UNK     1       4.170  35.893 236.948  1.00  0.00     0.088 A 
ATOM     20  H2  UNK     1       4.760  37.876 237.145  1.00  0.00     0.164 HD
ATOM     21  C12 UNK     1       3.147  34.960 236.922  1.00  0.00     0.025 A 
ENDBRANCH  14  15
ENDBRANCH   2  14
BRANCH   2  22
ATOM     22  C5  UNK     1      -1.610  35.234 236.805  1.00  0.00     0.122 C 
ATOM     23  C10 UNK     1      -2.156  34.088 237.631  1.00  0.00     0.026 C 
ENDBRANCH   2  22
TORSDOF 7
ENDMDL
MODEL 6
REMARK VINA RESULT:      -5.8      3.158      4.302
REMARK  7 active torsions:
REMARK  status: ('A' for Active; 'I' for Inactive)
REMARK    1  A    between atoms: O2_2  and  C6_11 
REMARK       I    between atoms: N1_3  and  C2_7 
REMARK    2  A    between atoms: N1_3  and  C3_8 
REMARK    3  A    between atoms: N1_3  and  C5_10 
REMARK    4  A    between atoms: C1_6  and  C2_7 
REMARK    5  A    between atoms: C1_6  and  C4_9 
REMARK    6  A    between atoms: C1_6  and  C6_11 
REMARK    7  A    between atoms: C3_8  and  C7_12 
ROOT
ATOM      1  O1  UNK     1       0.243  35.299 237.123  1.00  0.00    -0.273 OA
ATOM      2  N1  UNK     1       1.473  35.335 235.165  1.00  0.00    -0.348 N 
ATOM      3  C2  UNK     1       0.401  35.727 235.974  1.00  0.00     0.230 C 
ENDROOT
BRANCH   3   4
ATOM      4  C1  UNK     1      -0.598  36.747 235.397  1.00  0.00     0.134 C 
BRANCH   4   5
ATOM      5  C4  UNK     1      -1.706  36.063 234.612  1.00  0.00    -0.043 A 
ATOM      6  C8  UNK     1      -1.899  36.409 233.289  1.00  0.00     0.008 A 
ATOM      7  C13 UNK     1      -2.916  35.782 232.568  1.00  0.00     0.001 A 
ATOM      8  C15 UNK     1      -3.717  34.821 233.184  1.00  0.00     0.000 A 
ATOM      9  C14 UNK     1      -3.503  34.488 234.522  1.00  0.00     0.001 A 
ATOM     10  C9  UNK     1      -2.486  35.116 235.243  1.00  0.00     0.008 A 
ENDBRANCH   4   5
BRANCH   4  11
ATOM     11  C6  UNK     1      -1.226  37.609 236.507  1.00  0.00     0.183 C 
BRANCH  11  12
ATOM     12  O2  UNK     1      -1.275  38.973 236.103  1.00  0.00    -0.400 OA
ATOM     13  H18 UNK     1      -1.672  38.994 235.216  1.00  0.00     0.209 HD
ENDBRANCH  11  12
ENDBRANCH   4  11
ENDBRANCH   3   4
BRANCH   2  14
ATOM     14  C3  UNK     1       1.731  35.792 233.802  1.00  0.00     0.164 C 
BRANCH  14  15
ATOM     15  C7  UNK     1       1.268  34.792 232.776  1.00  0.00    -0.038 A 
ATOM     16  C11 UNK     1       1.392  35.086 231.431  1.00  0.00     0.025 A 
ATOM     17  C16 UNK     1       0.951  34.133 230.527  1.00  0.00     0.088 A 
ATOM     18  N2  UNK     1       0.412  32.945 230.882  1.00  0.00    -0.375 N 
ATOM     19  C17 UNK     1       0.312  32.704 232.209  1.00  0.00     0.088 A 
ATOM     20  H2  UNK     1       0.098  32.268 230.188  1.00  0.00     0.164 HD
ATOM     21  C12 UNK     1       0.723  33.591 233.191  1.00  0.00     0.025 A 
ENDBRANCH  14  15
ENDBRANCH   2  14
BRANCH   2  22
ATOM     22  C5  UNK     1       2.485  34.436 235.711  1.00  0.00     0.122 C 
ATOM     23  C10 UNK     1       3.763  35.177 236.045  1.00  0.00     0.026 C 
ENDBRANCH   2  22
TORSDOF 7
ENDMDL
MODEL 7
REMARK VINA RESULT:      -5.8      2.416      4.884
REMARK  7 active torsions:
REMARK  status: ('A' for Active; 'I' for Inactive)
REMARK    1  A    between atoms: O2_2  and  C6_11 
REMARK       I    between atoms: N1_3  and  C2_7 
REMARK    2  A    between atoms: N1_3  and  C3_8 
REMARK    3  A    between atoms: N1_3  and  C5_10 
REMARK    4  A    between atoms: C1_6  and  C2_7 
REMARK    5  A    between atoms: C1_6  and  C4_9 
REMARK    6  A    between atoms: C1_6  and  C6_11 
REMARK    7  A    between atoms: C3_8  and  C7_12 
ROOT
ATOM      1  O1  UNK     1       4.132  35.430 236.091  1.00  0.00    -0.273 OA
ATOM      2  N1  UNK     1       2.005  36.322 235.929  1.00  0.00    -0.348 N 
ATOM      3  C2  UNK     1       3.153  35.953 236.637  1.00  0.00     0.230 C 
ENDROOT
BRANCH   3   4
ATOM      4  C1  UNK     1       3.186  36.236 238.151  1.00  0.00     0.134 C 
BRANCH   4   5
ATOM      5  C4  UNK     1       3.594  35.004 238.942  1.00  0.00    -0.043 A 
ATOM      6  C8  UNK     1       2.812  33.869 238.862  1.00  0.00     0.008 A 
ATOM      7  C13 UNK     1       3.186  32.738 239.588  1.00  0.00     0.001 A 
ATOM      8  C15 UNK     1       4.335  32.764 240.377  1.00  0.00     0.000 A 
ATOM      9  C14 UNK     1       5.111  33.922 240.441  1.00  0.00     0.001 A 
ATOM     10  C9  UNK     1       4.736  35.054 239.716  1.00  0.00     0.008 A 
ENDBRANCH   4   5
BRANCH   4  11
ATOM     11  C6  UNK     1       4.146  37.391 238.486  1.00  0.00     0.183 C 
BRANCH  11  12
ATOM     12  O2  UNK     1       4.778  37.866 237.303  1.00  0.00    -0.400 OA
ATOM     13  H18 UNK     1       4.543  37.252 236.588  1.00  0.00     0.209 HD
ENDBRANCH  11  12
ENDBRANCH   4  11
ENDBRANCH   3   4
BRANCH   2  14
ATOM     14  C3  UNK     1       0.810  36.942 236.497  1.00  0.00     0.164 C 
BRANCH  14  15
ATOM     15  C7  UNK     1      -0.329  35.964 236.616  1.00  0.00    -0.038 A 
ATOM     16  C11 UNK     1      -1.582  36.315 236.148  1.00  0.00     0.025 A 
ATOM     17  C16 UNK     1      -2.596  35.381 236.281  1.00  0.00     0.088 A 
ATOM     18  N2  UNK     1      -2.431  34.159 236.836  1.00  0.00    -0.375 N 
ATOM     19  C17 UNK     1      -1.188  33.863 237.278  1.00  0.00     0.088 A 
ATOM     20  H2  UNK     1      -3.203  33.497 236.918  1.00  0.00     0.164 HD
ATOM     21  C12 UNK     1      -0.109  34.727 237.193  1.00  0.00     0.025 A 
ENDBRANCH  14  15
ENDBRANCH   2  14
BRANCH   2  22
ATOM     22  C5  UNK     1       1.974  36.147 234.481  1.00  0.00     0.122 C 
ATOM     23  C10 UNK     1       1.617  34.725 234.101  1.00  0.00     0.026 C 
ENDBRANCH   2  22
TORSDOF 7
ENDMDL
MODEL 8
REMARK VINA RESULT:      -5.7      1.816      5.008
REMARK  7 active torsions:
REMARK  status: ('A' for Active; 'I' for Inactive)
REMARK    1  A    between atoms: O2_2  and  C6_11 
REMARK       I    between atoms: N1_3  and  C2_7 
REMARK    2  A    between atoms: N1_3  and  C3_8 
REMARK    3  A    between atoms: N1_3  and  C5_10 
REMARK    4  A    between atoms: C1_6  and  C2_7 
REMARK    5  A    between atoms: C1_6  and  C4_9 
REMARK    6  A    between atoms: C1_6  and  C6_11 
REMARK    7  A    between atoms: C3_8  and  C7_12 
ROOT
ATOM      1  O1  UNK     1       3.740  35.714 236.760  1.00  0.00    -0.273 OA
ATOM      2  N1  UNK     1       1.431  35.593 236.703  1.00  0.00    -0.348 N 
ATOM      3  C2  UNK     1       2.698  35.114 237.052  1.00  0.00     0.230 C 
ENDROOT
BRANCH   3   4
ATOM      4  C1  UNK     1       2.775  33.796 237.846  1.00  0.00     0.134 C 
BRANCH   4   5
ATOM      5  C4  UNK     1       3.468  32.702 237.049  1.00  0.00    -0.043 A 
ATOM      6  C8  UNK     1       3.014  32.412 235.778  1.00  0.00     0.008 A 
ATOM      7  C13 UNK     1       3.649  31.407 235.047  1.00  0.00     0.001 A 
ATOM      8  C15 UNK     1       4.726  30.716 235.600  1.00  0.00     0.000 A 
ATOM      9  C14 UNK     1       5.168  31.029 236.886  1.00  0.00     0.001 A 
ATOM     10  C9  UNK     1       4.532  32.032 237.618  1.00  0.00     0.008 A 
ENDBRANCH   4   5
BRANCH   4  11
ATOM     11  C6  UNK     1       3.511  33.988 239.184  1.00  0.00     0.183 C 
BRANCH  11  12
ATOM     12  O2  UNK     1       3.324  35.315 239.663  1.00  0.00    -0.400 OA
ATOM     13  H18 UNK     1       4.206  35.675 239.859  1.00  0.00     0.209 HD
ENDBRANCH  11  12
ENDBRANCH   4  11
ENDBRANCH   3   4
BRANCH   2  14
ATOM     14  C3  UNK     1       0.157  34.946 237.009  1.00  0.00     0.164 C 
BRANCH  14  15
ATOM     15  C7  UNK     1      -0.668  34.716 235.771  1.00  0.00    -0.038 A 
ATOM     16  C11 UNK     1      -0.178  33.903 234.766  1.00  0.00     0.025 A 
ATOM     17  C16 UNK     1      -0.975  33.723 233.646  1.00  0.00     0.088 A 
ATOM     18  N2  UNK     1      -2.191  34.291 233.484  1.00  0.00    -0.375 N 
ATOM     19  C17 UNK     1      -2.626  35.077 234.495  1.00  0.00     0.088 A 
ATOM     20  H2  UNK     1      -2.750  34.136 232.646  1.00  0.00     0.164 HD
ATOM     21  C12 UNK     1      -1.907  35.320 235.653  1.00  0.00     0.025 A 
ENDBRANCH  14  15
ENDBRANCH   2  14
BRANCH   2  22
ATOM     22  C5  UNK     1       1.317  36.880 236.027  1.00  0.00     0.122 C 
ATOM     23  C10 UNK     1       0.655  37.915 236.911  1.00  0.00     0.026 C 
ENDBRANCH   2  22
TORSDOF 7
ENDMDL
MODEL 9
REMARK VINA RESULT:      -5.6      2.529      5.241
REMARK  7 active torsions:
REMARK  status: ('A' for Active; 'I' for Inactive)
REMARK    1  A    between atoms: O2_2  and  C6_11 
REMARK       I    between atoms: N1_3  and  C2_7 
REMARK    2  A    between atoms: N1_3  and  C3_8 
REMARK    3  A    between atoms: N1_3  and  C5_10 
REMARK    4  A    between atoms: C1_6  and  C2_7 
REMARK    5  A    between atoms: C1_6  and  C4_9 
REMARK    6  A    between atoms: C1_6  and  C6_11 
REMARK    7  A    between atoms: C3_8  and  C7_12 
ROOT
ATOM      1  O1  UNK     1       3.375  32.264 235.109  1.00  0.00    -0.273 OA
ATOM      2  N1  UNK     1       2.556  33.470 236.905  1.00  0.00    -0.348 N 
ATOM      3  C2  UNK     1       2.424  32.817 235.675  1.00  0.00     0.230 C 
ENDROOT
BRANCH   3   4
ATOM      4  C1  UNK     1       1.027  32.782 235.026  1.00  0.00     0.134 C 
BRANCH   4   5
ATOM      5  C4  UNK     1       1.043  33.384 233.631  1.00  0.00    -0.043 A 
ATOM      6  C8  UNK     1       0.837  32.558 232.544  1.00  0.00     0.008 A 
ATOM      7  C13 UNK     1       0.851  33.110 231.262  1.00  0.00     0.001 A 
ATOM      8  C15 UNK     1       1.069  34.476 231.094  1.00  0.00     0.000 A 
ATOM      9  C14 UNK     1       1.273  35.292 232.208  1.00  0.00     0.001 A 
ATOM     10  C9  UNK     1       1.260  34.740 233.489  1.00  0.00     0.008 A 
ENDBRANCH   4   5
BRANCH   4  11
ATOM     11  C6  UNK     1       0.479  31.346 234.949  1.00  0.00     0.183 C 
BRANCH  11  12
ATOM     12  O2  UNK     1       1.238  30.483 235.789  1.00  0.00    -0.400 OA
ATOM     13  H18 UNK     1       2.008  30.188 235.274  1.00  0.00     0.209 HD
ENDBRANCH  11  12
ENDBRANCH   4  11
ENDBRANCH   3   4
BRANCH   2  14
ATOM     14  C3  UNK     1       1.486  34.145 237.635  1.00  0.00     0.164 C 
BRANCH  14  15
ATOM     15  C7  UNK     1       1.203  35.515 237.078  1.00  0.00    -0.038 A 
ATOM     16  C11 UNK     1       2.245  36.405 236.892  1.00  0.00     0.025 A 
ATOM     17  C16 UNK     1       1.932  37.653 236.377  1.00  0.00     0.088 A 
ATOM     18  N2  UNK     1       0.680  38.045 236.050  1.00  0.00    -0.375 N 
ATOM     19  C17 UNK     1      -0.304  37.139 236.250  1.00  0.00     0.088 A 
ATOM     20  H2  UNK     1       0.488  38.972 235.674  1.00  0.00     0.164 HD
ATOM     21  C12 UNK     1      -0.095  35.868 236.759  1.00  0.00     0.025 A 
ENDBRANCH  14  15
ENDBRANCH   2  14
BRANCH   2  22
ATOM     22  C5  UNK     1       3.845  33.449 237.587  1.00  0.00     0.122 C 
ATOM     23  C10 UNK     1       3.681  33.581 239.087  1.00  0.00     0.026 C 
ENDBRANCH   2  22
TORSDOF 7
ENDMDL
