MODEL 1
REMARK VINA RESULT:      -6.0      0.000      0.000
REMARK  6 active torsions:
REMARK  status: ('A' for Active; 'I' for Inactive)
REMARK    1  A    between atoms: O1_1  and  C1_4 
REMARK    2  A    between atoms: O2_2  and  C16_19 
REMARK    3  A    between atoms: N1_3  and  C8_11 
REMARK    4  A    between atoms: C1_4  and  C2_5 
REMARK    5  A    between atoms: C2_5  and  C8_11 
REMARK    6  A    between atoms: C2_5  and  C9_12 
ROOT
ATOM      1  C2  UNK     1      -1.220  40.308 226.961  1.00  0.00     0.081 C 
ENDROOT
BRANCH   1   2
ATOM      2  C1  UNK     1      -1.651  39.258 227.987  1.00  0.00     0.067 C 
ATOM      3  C3  UNK     1      -0.575  38.170 228.126  1.00  0.00     0.038 C 
ATOM      4  C5  UNK     1      -1.003  37.048 229.074  1.00  0.00     0.003 C 
ATOM      5  C7  UNK     1      -2.346  36.450 228.668  1.00  0.00     0.000 C 
ATOM      6  C6  UNK     1      -3.426  37.521 228.549  1.00  0.00     0.003 C 
ATOM      7  C4  UNK     1      -3.005  38.643 227.598  1.00  0.00     0.038 C 
BRANCH   2   8
ATOM      8  O1  UNK     1      -1.782  39.913 229.252  1.00  0.00    -0.389 OA
ATOM      9  H14 UNK     1      -2.724  40.100 229.408  1.00  0.00     0.210 HD
ENDBRANCH   2   8
ENDBRANCH   1   2
BRANCH   1  10
ATOM     10  C8  UNK     1      -2.302  41.378 226.703  1.00  0.00     0.283 C 
BRANCH  10  11
ATOM     11  N1  UNK     1      -2.669  41.460 225.292  1.00  0.00     0.080 N 
ATOM     12  C12 UNK     1      -4.113  41.294 225.127  1.00  0.00     0.309 C 
ATOM     13  C13 UNK     1      -1.948  40.451 224.515  1.00  0.00     0.309 C 
ENDBRANCH  10  11
ENDBRANCH   1  10
BRANCH   1  14
ATOM     14  C9  UNK     1       0.090  40.966 227.377  1.00  0.00    -0.049 A 
ATOM     15  C10 UNK     1       1.185  40.851 226.548  1.00  0.00     0.010 A 
ATOM     16  C14 UNK     1       2.384  41.454 226.929  1.00  0.00     0.037 A 
ATOM     17  C16 UNK     1       2.460  42.158 228.130  1.00  0.00     0.068 A 
ATOM     18  C15 UNK     1       1.336  42.260 228.951  1.00  0.00     0.037 A 
ATOM     19  C11 UNK     1       0.137  41.657 228.570  1.00  0.00     0.010 A 
BRANCH  17  20
ATOM     20  O2  UNK     1       3.630  42.745 228.502  1.00  0.00    -0.356 OA
ATOM     21  C17 UNK     1       4.263  42.245 229.679  1.00  0.00     0.210 C 
ENDBRANCH  17  20
ENDBRANCH   1  14
TORSDOF 6
ENDMDL
MODEL 2
REMARK VINA RESULT:      -5.8      8.947     10.732
REMARK  6 active torsions:
REMARK  status: ('A' for Active; 'I' for Inactive)
REMARK    1  A    between atoms: O1_1  and  C1_4 
REMARK    2  A    between atoms: O2_2  and  C16_19 
REMARK    3  A    between atoms: N1_3  and  C8_11 
REMARK    4  A    between atoms: C1_4  and  C2_5 
REMARK    5  A    between atoms: C2_5  and  C8_11 
REMARK    6  A    between atoms: C2_5  and  C9_12 
ROOT
ATOM      1  C2  UNK     1       1.180  36.242 236.099  1.00  0.00     0.081 C 
ENDROOT
BRANCH   1   2
ATOM      2  C1  UNK     1       1.570  35.434 234.860  1.00  0.00     0.067 C 
ATOM      3  C3  UNK     1       0.934  36.043 233.601  1.00  0.00     0.038 C 
ATOM      4  C5  UNK     1       1.219  35.214 232.347  1.00  0.00     0.003 C 
ATOM      5  C7  UNK     1       0.804  33.758 232.529  1.00  0.00     0.000 C 
ATOM      6  C6  UNK     1       1.449  33.139 233.764  1.00  0.00     0.003 C 
ATOM      7  C4  UNK     1       1.162  33.960 235.022  1.00  0.00     0.038 C 
BRANCH   2   8
ATOM      8  O1  UNK     1       2.991  35.511 234.717  1.00  0.00    -0.389 OA
ATOM      9  H14 UNK     1       3.369  34.634 234.896  1.00  0.00     0.210 HD
ENDBRANCH   2   8
ENDBRANCH   1   2
BRANCH   1  10
ATOM     10  C8  UNK     1      -0.120  35.738 236.763  1.00  0.00     0.283 C 
BRANCH  10  11
ATOM     11  N1  UNK     1      -1.290  36.490 236.321  1.00  0.00     0.080 N 
ATOM     12  C12 UNK     1      -1.171  37.898 236.703  1.00  0.00     0.309 C 
ATOM     13  C13 UNK     1      -2.513  35.913 236.881  1.00  0.00     0.309 C 
ENDBRANCH  10  11
ENDBRANCH   1  10
BRANCH   1  14
ATOM     14  C9  UNK     1       2.319  36.264 237.111  1.00  0.00    -0.049 A 
ATOM     15  C10 UNK     1       2.528  35.153 237.901  1.00  0.00     0.010 A 
ATOM     16  C14 UNK     1       3.571  35.173 238.828  1.00  0.00     0.037 A 
ATOM     17  C16 UNK     1       4.380  36.302 238.943  1.00  0.00     0.068 A 
ATOM     18  C15 UNK     1       4.148  37.413 238.131  1.00  0.00     0.037 A 
ATOM     19  C11 UNK     1       3.105  37.394 237.204  1.00  0.00     0.010 A 
BRANCH  17  20
ATOM     20  O2  UNK     1       5.397  36.321 239.848  1.00  0.00    -0.356 OA
ATOM     21  C17 UNK     1       5.369  35.333 240.877  1.00  0.00     0.210 C 
ENDBRANCH  17  20
ENDBRANCH   1  14
TORSDOF 6
ENDMDL
MODEL 3
REMARK VINA RESULT:      -5.8      8.314     10.333
REMARK  6 active torsions:
REMARK  status: ('A' for Active; 'I' for Inactive)
REMARK    1  A    between atoms: O1_1  and  C1_4 
REMARK    2  A    between atoms: O2_2  and  C16_19 
REMARK    3  A    between atoms: N1_3  and  C8_11 
REMARK    4  A    between atoms: C1_4  and  C2_5 
REMARK    5  A    between atoms: C2_5  and  C8_11 
REMARK    6  A    between atoms: C2_5  and  C9_12 
ROOT
ATOM      1  C2  UNK     1       0.275  35.561 235.821  1.00  0.00     0.081 C 
ENDROOT
BRANCH   1   2
ATOM      2  C1  UNK     1       0.286  35.908 234.331  1.00  0.00     0.067 C 
ATOM      3  C3  UNK     1      -1.131  36.254 233.850  1.00  0.00     0.038 C 
ATOM      4  C5  UNK     1      -1.186  36.516 232.343  1.00  0.00     0.003 C 
ATOM      5  C7  UNK     1      -0.599  35.355 231.548  1.00  0.00     0.000 C 
ATOM      6  C6  UNK     1       0.818  35.020 232.004  1.00  0.00     0.003 C 
ATOM      7  C4  UNK     1       0.877  34.751 233.508  1.00  0.00     0.038 C 
BRANCH   2   8
ATOM      8  O1  UNK     1       1.106  37.068 234.158  1.00  0.00    -0.389 OA
ATOM      9  H14 UNK     1       1.881  36.823 233.625  1.00  0.00     0.210 HD
ENDBRANCH   2   8
ENDBRANCH   1   2
BRANCH   1  10
ATOM     10  C8  UNK     1      -0.043  34.075 236.091  1.00  0.00     0.283 C 
BRANCH  10  11
ATOM     11  N1  UNK     1      -0.825  33.893 237.310  1.00  0.00     0.080 N 
ATOM     12  C12 UNK     1      -0.984  32.470 237.611  1.00  0.00     0.309 C 
ATOM     13  C13 UNK     1      -2.134  34.535 237.180  1.00  0.00     0.309 C 
ENDBRANCH  10  11
ENDBRANCH   1  10
BRANCH   1  14
ATOM     14  C9  UNK     1       1.595  35.950 236.476  1.00  0.00    -0.049 A 
ATOM     15  C10 UNK     1       1.645  37.095 237.242  1.00  0.00     0.010 A 
ATOM     16  C14 UNK     1       2.853  37.451 237.843  1.00  0.00     0.037 A 
ATOM     17  C16 UNK     1       3.982  36.653 237.664  1.00  0.00     0.068 A 
ATOM     18  C15 UNK     1       3.904  35.498 236.885  1.00  0.00     0.037 A 
ATOM     19  C11 UNK     1       2.696  35.142 236.284  1.00  0.00     0.010 A 
BRANCH  17  20
ATOM     20  O2  UNK     1       5.160  37.000 238.250  1.00  0.00    -0.356 OA
ATOM     21  C17 UNK     1       5.461  36.400 239.509  1.00  0.00     0.210 C 
ENDBRANCH  17  20
ENDBRANCH   1  14
TORSDOF 6
ENDMDL
MODEL 4
REMARK VINA RESULT:      -5.6      8.183     10.989
REMARK  6 active torsions:
REMARK  status: ('A' for Active; 'I' for Inactive)
REMARK    1  A    between atoms: O1_1  and  C1_4 
REMARK    2  A    between atoms: O2_2  and  C16_19 
REMARK    3  A    between atoms: N1_3  and  C8_11 
REMARK    4  A    between atoms: C1_4  and  C2_5 
REMARK    5  A    between atoms: C2_5  and  C8_11 
REMARK    6  A    between atoms: C2_5  and  C9_12 
ROOT
ATOM      1  C2  UNK     1       0.524  35.522 234.666  1.00  0.00     0.081 C 
ENDROOT
BRANCH   1   2
ATOM      2  C1  UNK     1       1.799  36.122 235.263  1.00  0.00     0.067 C 
ATOM      3  C3  UNK     1       2.794  35.009 235.630  1.00  0.00     0.038 C 
ATOM      4  C5  UNK     1       4.047  35.555 236.318  1.00  0.00     0.003 C 
ATOM      5  C7  UNK     1       3.696  36.408 237.533  1.00  0.00     0.000 C 
ATOM      6  C6  UNK     1       2.726  37.529 237.172  1.00  0.00     0.003 C 
ATOM      7  C4  UNK     1       1.468  36.989 236.489  1.00  0.00     0.038 C 
BRANCH   2   8
ATOM      8  O1  UNK     1       2.406  36.943 234.262  1.00  0.00    -0.389 OA
ATOM      9  H14 UNK     1       2.844  36.368 233.612  1.00  0.00     0.210 HD
ENDBRANCH   2   8
ENDBRANCH   1   2
BRANCH   1  10
ATOM     10  C8  UNK     1       0.809  34.444 233.598  1.00  0.00     0.283 C 
BRANCH  10  11
ATOM     11  N1  UNK     1       0.199  34.769 232.312  1.00  0.00     0.080 N 
ATOM     12  C12 UNK     1       1.221  34.876 231.272  1.00  0.00     0.309 C 
ATOM     13  C13 UNK     1      -0.564  36.014 232.406  1.00  0.00     0.309 C 
ENDBRANCH  10  11
ENDBRANCH   1  10
BRANCH   1  14
ATOM     14  C9  UNK     1      -0.375  34.961 235.761  1.00  0.00    -0.049 A 
ATOM     15  C10 UNK     1       0.042  33.848 236.458  1.00  0.00     0.010 A 
ATOM     16  C14 UNK     1      -0.781  33.334 237.461  1.00  0.00     0.037 A 
ATOM     17  C16 UNK     1      -2.002  33.946 237.742  1.00  0.00     0.068 A 
ATOM     18  C15 UNK     1      -2.400  35.073 237.021  1.00  0.00     0.037 A 
ATOM     19  C11 UNK     1      -1.577  35.586 236.019  1.00  0.00     0.010 A 
BRANCH  17  20
ATOM     20  O2  UNK     1      -2.805  33.444 238.720  1.00  0.00    -0.356 OA
ATOM     21  C17 UNK     1      -2.353  32.269 239.392  1.00  0.00     0.210 C 
ENDBRANCH  17  20
ENDBRANCH   1  14
TORSDOF 6
ENDMDL
MODEL 5
REMARK VINA RESULT:      -5.6      7.114      9.831
REMARK  6 active torsions:
REMARK  status: ('A' for Active; 'I' for Inactive)
REMARK    1  A    between atoms: O1_1  and  C1_4 
REMARK    2  A    between atoms: O2_2  and  C16_19 
REMARK    3  A    between atoms: N1_3  and  C8_11 
REMARK    4  A    between atoms: C1_4  and  C2_5 
REMARK    5  A    between atoms: C2_5  and  C8_11 
REMARK    6  A    between atoms: C2_5  and  C9_12 
ROOT
ATOM      1  C2  UNK     1       0.451  35.463 235.189  1.00  0.00     0.081 C 
ENDROOT
BRANCH   1   2
ATOM      2  C1  UNK     1       1.815  36.065 235.533  1.00  0.00     0.067 C 
ATOM      3  C3  UNK     1       2.849  34.953 235.768  1.00  0.00     0.038 C 
ATOM      4  C5  UNK     1       4.207  35.506 236.206  1.00  0.00     0.003 C 
ATOM      5  C7  UNK     1       4.079  36.410 237.427  1.00  0.00     0.000 C 
ATOM      6  C6  UNK     1       3.071  37.531 237.193  1.00  0.00     0.003 C 
ATOM      7  C4  UNK     1       1.709  36.984 236.761  1.00  0.00     0.038 C 
BRANCH   2   8
ATOM      8  O1  UNK     1       2.247  36.838 234.409  1.00  0.00    -0.389 OA
ATOM      9  H14 UNK     1       1.902  36.426 233.598  1.00  0.00     0.210 HD
ENDBRANCH   2   8
ENDBRANCH   1   2
BRANCH   1  10
ATOM     10  C8  UNK     1      -0.730  36.316 235.701  1.00  0.00     0.283 C 
BRANCH  10  11
ATOM     11  N1  UNK     1      -1.657  35.537 236.517  1.00  0.00     0.080 N 
ATOM     12  C12 UNK     1      -0.970  34.401 237.131  1.00  0.00     0.309 C 
ATOM     13  C13 UNK     1      -2.787  35.074 235.711  1.00  0.00     0.309 C 
ENDBRANCH  10  11
ENDBRANCH   1  10
BRANCH   1  14
ATOM     14  C9  UNK     1       0.325  35.228 233.689  1.00  0.00    -0.049 A 
ATOM     15  C10 UNK     1      -0.476  36.070 232.949  1.00  0.00     0.010 A 
ATOM     16  C14 UNK     1      -0.591  35.855 231.575  1.00  0.00     0.037 A 
ATOM     17  C16 UNK     1       0.098  34.803 230.974  1.00  0.00     0.068 A 
ATOM     18  C15 UNK     1       0.903  33.964 231.746  1.00  0.00     0.037 A 
ATOM     19  C11 UNK     1       1.019  34.180 233.120  1.00  0.00     0.010 A 
BRANCH  17  20
ATOM     20  O2  UNK     1      -0.015  34.593 229.634  1.00  0.00    -0.356 OA
ATOM     21  C17 UNK     1       1.197  34.442 228.896  1.00  0.00     0.210 C 
ENDBRANCH  17  20
ENDBRANCH   1  14
TORSDOF 6
ENDMDL
MODEL 6
REMARK VINA RESULT:      -5.6      8.050     10.344
REMARK  6 active torsions:
REMARK  status: ('A' for Active; 'I' for Inactive)
REMARK    1  A    between atoms: O1_1  and  C1_4 
REMARK    2  A    between atoms: O2_2  and  C16_19 
REMARK    3  A    between atoms: N1_3  and  C8_11 
REMARK    4  A    between atoms: C1_4  and  C2_5 
REMARK    5  A    between atoms: C2_5  and  C8_11 
REMARK    6  A    between atoms: C2_5  and  C9_12 
ROOT
ATOM      1  C2  UNK     1       0.503  35.294 234.798  1.00  0.00     0.081 C 
ENDROOT
BRANCH   1   2
ATOM      2  C1  UNK     1       1.822  35.919 235.257  1.00  0.00     0.067 C 
ATOM      3  C3  UNK     1       2.831  34.824 235.637  1.00  0.00     0.038 C 
ATOM      4  C5  UNK     1       4.134  35.402 236.192  1.00  0.00     0.003 C 
ATOM      5  C7  UNK     1       3.877  36.349 237.360  1.00  0.00     0.000 C 
ATOM      6  C6  UNK     1       2.894  37.453 236.984  1.00  0.00     0.003 C 
ATOM      7  C4  UNK     1       1.586  36.880 236.434  1.00  0.00     0.038 C 
BRANCH   2   8
ATOM      8  O1  UNK     1       2.364  36.654 234.156  1.00  0.00    -0.389 OA
ATOM      9  H14 UNK     1       2.180  36.166 233.336  1.00  0.00     0.210 HD
ENDBRANCH   2   8
ENDBRANCH   1   2
BRANCH   1  10
ATOM     10  C8  UNK     1      -0.358  36.257 233.953  1.00  0.00     0.283 C 
BRANCH  10  11
ATOM     11  N1  UNK     1      -1.739  36.316 234.423  1.00  0.00     0.080 N 
ATOM     12  C12 UNK     1      -1.845  35.769 235.776  1.00  0.00     0.309 C 
ATOM     13  C13 UNK     1      -2.623  35.590 233.510  1.00  0.00     0.309 C 
ENDBRANCH  10  11
ENDBRANCH   1  10
BRANCH   1  14
ATOM     14  C9  UNK     1       0.754  33.999 234.035  1.00  0.00    -0.049 A 
ATOM     15  C10 UNK     1       0.834  34.042 232.659  1.00  0.00     0.010 A 
ATOM     16  C14 UNK     1       1.064  32.857 231.961  1.00  0.00     0.037 A 
ATOM     17  C16 UNK     1       1.210  31.656 232.654  1.00  0.00     0.068 A 
ATOM     18  C15 UNK     1       1.125  31.640 234.047  1.00  0.00     0.037 A 
ATOM     19  C11 UNK     1       0.895  32.825 234.745  1.00  0.00     0.010 A 
BRANCH  17  20
ATOM     20  O2  UNK     1       1.434  30.500 231.972  1.00  0.00    -0.356 OA
ATOM     21  C17 UNK     1       0.726  30.321 230.746  1.00  0.00     0.210 C 
ENDBRANCH  17  20
ENDBRANCH   1  14
TORSDOF 6
ENDMDL
MODEL 7
REMARK VINA RESULT:      -5.6      9.085     11.630
REMARK  6 active torsions:
REMARK  status: ('A' for Active; 'I' for Inactive)
REMARK    1  A    between atoms: O1_1  and  C1_4 
REMARK    2  A    between atoms: O2_2  and  C16_19 
REMARK    3  A    between atoms: N1_3  and  C8_11 
REMARK    4  A    between atoms: C1_4  and  C2_5 
REMARK    5  A    between atoms: C2_5  and  C8_11 
REMARK    6  A    between atoms: C2_5  and  C9_12 
ROOT
ATOM      1  C2  UNK     1       2.728  34.585 236.934  1.00  0.00     0.081 C 
ENDROOT
BRANCH   1   2
ATOM      2  C1  UNK     1       2.919  33.094 236.653  1.00  0.00     0.067 C 
ATOM      3  C3  UNK     1       4.319  32.639 237.096  1.00  0.00     0.038 C 
ATOM      4  C5  UNK     1       4.591  31.174 236.748  1.00  0.00     0.003 C 
ATOM      5  C7  UNK     1       4.361  30.895 235.267  1.00  0.00     0.000 C 
ATOM      6  C6  UNK     1       2.965  31.322 234.824  1.00  0.00     0.003 C 
ATOM      7  C4  UNK     1       2.690  32.788 235.163  1.00  0.00     0.038 C 
BRANCH   2   8
ATOM      8  O1  UNK     1       1.956  32.375 237.429  1.00  0.00    -0.389 OA
ATOM      9  H14 UNK     1       2.207  31.436 237.443  1.00  0.00     0.210 HD
ENDBRANCH   2   8
ENDBRANCH   1   2
BRANCH   1  10
ATOM     10  C8  UNK     1       3.995  35.419 236.650  1.00  0.00     0.283 C 
BRANCH  10  11
ATOM     11  N1  UNK     1       4.332  36.304 237.762  1.00  0.00     0.080 N 
ATOM     12  C12 UNK     1       3.842  35.751 239.024  1.00  0.00     0.309 C 
ATOM     13  C13 UNK     1       3.775  37.640 237.541  1.00  0.00     0.309 C 
ENDBRANCH  10  11
ENDBRANCH   1  10
BRANCH   1  14
ATOM     14  C9  UNK     1       1.543  35.136 236.151  1.00  0.00    -0.049 A 
ATOM     15  C10 UNK     1       1.770  35.713 234.919  1.00  0.00     0.010 A 
ATOM     16  C14 UNK     1       0.685  36.217 234.202  1.00  0.00     0.037 A 
ATOM     17  C16 UNK     1      -0.602  36.133 234.732  1.00  0.00     0.068 A 
ATOM     18  C15 UNK     1      -0.805  35.544 235.981  1.00  0.00     0.037 A 
ATOM     19  C11 UNK     1       0.280  35.039 236.699  1.00  0.00     0.010 A 
BRANCH  17  20
ATOM     20  O2  UNK     1      -1.660  36.626 234.032  1.00  0.00    -0.356 OA
ATOM     21  C17 UNK     1      -1.555  36.623 232.609  1.00  0.00     0.210 C 
ENDBRANCH  17  20
ENDBRANCH   1  14
TORSDOF 6
ENDMDL
MODEL 8
REMARK VINA RESULT:      -5.5      7.994     10.820
REMARK  6 active torsions:
REMARK  status: ('A' for Active; 'I' for Inactive)
REMARK    1  A    between atoms: O1_1  and  C1_4 
REMARK    2  A    between atoms: O2_2  and  C16_19 
REMARK    3  A    between atoms: N1_3  and  C8_11 
REMARK    4  A    between atoms: C1_4  and  C2_5 
REMARK    5  A    between atoms: C2_5  and  C8_11 
REMARK    6  A    between atoms: C2_5  and  C9_12 
ROOT
ATOM      1  C2  UNK     1       2.056  34.526 235.598  1.00  0.00     0.081 C 
ENDROOT
BRANCH   1   2
ATOM      2  C1  UNK     1       1.077  35.386 236.399  1.00  0.00     0.067 C 
ATOM      3  C3  UNK     1      -0.311  35.375 235.739  1.00  0.00     0.038 C 
ATOM      4  C5  UNK     1      -1.301  36.297 236.453  1.00  0.00     0.003 C 
ATOM      5  C7  UNK     1      -0.758  37.716 236.577  1.00  0.00     0.000 C 
ATOM      6  C6  UNK     1       0.609  37.739 237.253  1.00  0.00     0.003 C 
ATOM      7  C4  UNK     1       1.606  36.823 236.539  1.00  0.00     0.038 C 
BRANCH   2   8
ATOM      8  O1  UNK     1       0.950  34.806 237.700  1.00  0.00    -0.389 OA
ATOM      9  H14 UNK     1       0.071  34.398 237.774  1.00  0.00     0.210 HD
ENDBRANCH   2   8
ENDBRANCH   1   2
BRANCH   1  10
ATOM     10  C8  UNK     1       2.323  33.151 236.249  1.00  0.00     0.283 C 
BRANCH  10  11
ATOM     11  N1  UNK     1       3.747  32.834 236.300  1.00  0.00     0.080 N 
ATOM     12  C12 UNK     1       4.016  31.567 235.620  1.00  0.00     0.309 C 
ATOM     13  C13 UNK     1       4.210  32.775 237.687  1.00  0.00     0.309 C 
ENDBRANCH  10  11
ENDBRANCH   1  10
BRANCH   1  14
ATOM     14  C9  UNK     1       1.574  34.348 234.163  1.00  0.00    -0.049 A 
ATOM     15  C10 UNK     1       1.619  35.429 233.308  1.00  0.00     0.010 A 
ATOM     16  C14 UNK     1       1.177  35.267 231.995  1.00  0.00     0.037 A 
ATOM     17  C16 UNK     1       0.700  34.028 231.567  1.00  0.00     0.068 A 
ATOM     18  C15 UNK     1       0.666  32.950 232.453  1.00  0.00     0.037 A 
ATOM     19  C11 UNK     1       1.108  33.112 233.766  1.00  0.00     0.010 A 
BRANCH  17  20
ATOM     20  O2  UNK     1       0.269  33.871 230.286  1.00  0.00    -0.356 OA
ATOM     21  C17 UNK     1       1.200  34.168 229.246  1.00  0.00     0.210 C 
ENDBRANCH  17  20
ENDBRANCH   1  14
TORSDOF 6
ENDMDL
MODEL 9
REMARK VINA RESULT:      -5.5      6.749      9.587
REMARK  6 active torsions:
REMARK  status: ('A' for Active; 'I' for Inactive)
REMARK    1  A    between atoms: O1_1  and  C1_4 
REMARK    2  A    between atoms: O2_2  and  C16_19 
REMARK    3  A    between atoms: N1_3  and  C8_11 
REMARK    4  A    between atoms: C1_4  and  C2_5 
REMARK    5  A    between atoms: C2_5  and  C8_11 
REMARK    6  A    between atoms: C2_5  and  C9_12 
ROOT
ATOM      1  C2  UNK     1       1.325  34.650 234.225  1.00  0.00     0.081 C 
ENDROOT
BRANCH   1   2
ATOM      2  C1  UNK     1       1.850  35.881 234.968  1.00  0.00     0.067 C 
ATOM      3  C3  UNK     1       2.927  35.474 235.986  1.00  0.00     0.038 C 
ATOM      4  C5  UNK     1       3.416  36.660 236.819  1.00  0.00     0.003 C 
ATOM      5  C7  UNK     1       2.259  37.386 237.497  1.00  0.00     0.000 C 
ATOM      6  C6  UNK     1       1.195  37.814 236.491  1.00  0.00     0.003 C 
ATOM      7  C4  UNK     1       0.698  36.631 235.658  1.00  0.00     0.038 C 
BRANCH   2   8
ATOM      8  O1  UNK     1       2.458  36.746 234.005  1.00  0.00    -0.389 OA
ATOM      9  H14 UNK     1       3.402  36.832 234.218  1.00  0.00     0.210 HD
ENDBRANCH   2   8
ENDBRANCH   1   2
BRANCH   1  10
ATOM     10  C8  UNK     1       0.350  33.805 235.074  1.00  0.00     0.283 C 
BRANCH  10  11
ATOM     11  N1  UNK     1       0.629  32.376 234.971  1.00  0.00     0.080 N 
ATOM     12  C12 UNK     1       2.034  32.150 234.632  1.00  0.00     0.309 C 
ATOM     13  C13 UNK     1      -0.241  31.753 233.972  1.00  0.00     0.309 C 
ENDBRANCH  10  11
ENDBRANCH   1  10
BRANCH   1  14
ATOM     14  C9  UNK     1       0.672  35.051 232.908  1.00  0.00    -0.049 A 
ATOM     15  C10 UNK     1      -0.517  35.748 232.939  1.00  0.00     0.010 A 
ATOM     16  C14 UNK     1      -1.114  36.114 231.733  1.00  0.00     0.037 A 
ATOM     17  C16 UNK     1      -0.509  35.776 230.524  1.00  0.00     0.068 A 
ATOM     18  C15 UNK     1       0.695  35.070 230.520  1.00  0.00     0.037 A 
ATOM     19  C11 UNK     1       1.293  34.704 231.726  1.00  0.00     0.010 A 
BRANCH  17  20
ATOM     20  O2  UNK     1      -1.092  36.133 229.347  1.00  0.00    -0.356 OA
ATOM     21  C17 UNK     1      -1.686  37.429 229.284  1.00  0.00     0.210 C 
ENDBRANCH  17  20
ENDBRANCH   1  14
TORSDOF 6
ENDMDL
