MODEL 1
REMARK VINA RESULT:      -5.8      0.000      0.000
REMARK  2 active torsions:
REMARK  status: ('A' for Active; 'I' for Inactive)
REMARK    1  A    between atoms: N1_3  and  N2_5 
REMARK       I    between atoms: N3_7  and  C8_16 
REMARK       I    between atoms: N4_8  and  C8_16 
REMARK    2  A    between atoms: C1_9  and  C7_15 
ROOT
ATOM      1  N1  UNK     1       2.576  39.361 226.759  1.00  0.00    -0.297 N 
ATOM      2  H1  UNK     1       2.302  39.173 225.794  1.00  0.00     0.186 HD
ATOM      3  C7  UNK     1       1.799  39.891 227.654  1.00  0.00     0.122 C 
ENDROOT
BRANCH   1   4
ATOM      4  N2  UNK     1       3.833  39.084 227.289  1.00  0.00    -0.133 N 
ATOM      5  C8  UNK     1       4.215  37.859 227.041  1.00  0.00     0.684 C 
ATOM      6  N3  UNK     1       5.401  37.276 227.427  1.00  0.00    -0.234 N 
ATOM      7  N4  UNK     1       3.416  36.997 226.330  1.00  0.00    -0.234 N 
ATOM      8  H5  UNK     1       5.620  36.315 227.192  1.00  0.00     0.174 HD
ATOM      9  H6  UNK     1       6.091  37.796 227.959  1.00  0.00     0.174 HD
ATOM     10  H7  UNK     1       2.509  37.287 225.981  1.00  0.00     0.174 HD
ATOM     11  H8  UNK     1       3.706  36.045 226.135  1.00  0.00     0.174 HD
ATOM     12  H2  UNK     1       4.391  39.760 227.811  1.00  0.00     0.205 HD
ENDBRANCH   1   4
BRANCH   3  13
ATOM     13  C1  UNK     1       0.420  40.280 227.366  1.00  0.00     0.024 A 
ATOM     14  C2  UNK     1      -0.629  39.415 227.677  1.00  0.00     0.047 A 
ATOM     15 Cl1  UNK     1      -0.349  37.875 228.408  1.00  0.00    -0.083 Cl
ATOM     16  C4  UNK     1      -1.945  39.785 227.400  1.00  0.00     0.025 A 
ATOM     17  C6  UNK     1      -2.212  41.021 226.812  1.00  0.00     0.003 A 
ATOM     18  C5  UNK     1      -1.164  41.887 226.500  1.00  0.00     0.025 A 
ATOM     19  C3  UNK     1       0.152  41.516 226.777  1.00  0.00     0.047 A 
ATOM     20 Cl2  UNK     1       1.415  42.624 226.372  1.00  0.00    -0.083 Cl
ENDBRANCH   3  13
TORSDOF 2
ENDMDL
MODEL 2
REMARK VINA RESULT:      -5.8      0.061      2.435
REMARK  2 active torsions:
REMARK  status: ('A' for Active; 'I' for Inactive)
REMARK    1  A    between atoms: N1_3  and  N2_5 
REMARK       I    between atoms: N3_7  and  C8_16 
REMARK       I    between atoms: N4_8  and  C8_16 
REMARK    2  A    between atoms: C1_9  and  C7_15 
ROOT
ATOM      1  N1  UNK     1       2.520  39.278 226.775  1.00  0.00    -0.297 N 
ATOM      2  H1  UNK     1       2.203  38.975 225.854  1.00  0.00     0.186 HD
ATOM      3  C7  UNK     1       1.792  39.939 227.623  1.00  0.00     0.122 C 
ENDROOT
BRANCH   1   4
ATOM      4  N2  UNK     1       3.791  39.037 227.289  1.00  0.00    -0.133 N 
ATOM      5  C8  UNK     1       4.192  37.813 227.065  1.00  0.00     0.684 C 
ATOM      6  N3  UNK     1       5.396  37.263 227.443  1.00  0.00    -0.234 N 
ATOM      7  N4  UNK     1       3.397  36.919 226.391  1.00  0.00    -0.234 N 
ATOM      8  H5  UNK     1       5.629  36.299 227.228  1.00  0.00     0.174 HD
ATOM      9  H6  UNK     1       6.085  37.808 227.950  1.00  0.00     0.174 HD
ATOM     10  H7  UNK     1       2.479  37.183 226.051  1.00  0.00     0.174 HD
ATOM     11  H8  UNK     1       3.702  35.968 226.214  1.00  0.00     0.174 HD
ATOM     12  H2  UNK     1       4.346  39.736 227.784  1.00  0.00     0.205 HD
ENDBRANCH   1   4
BRANCH   3  13
ATOM     13  C1  UNK     1       0.411  40.324 227.339  1.00  0.00     0.024 A 
ATOM     14  C2  UNK     1       0.138  41.554 226.742  1.00  0.00     0.047 A 
ATOM     15 Cl1  UNK     1       1.398  42.656 226.315  1.00  0.00    -0.083 Cl
ATOM     16  C4  UNK     1      -1.181  41.921 226.473  1.00  0.00     0.025 A 
ATOM     17  C6  UNK     1      -2.226  41.059 226.801  1.00  0.00     0.003 A 
ATOM     18  C5  UNK     1      -1.953  39.828 227.399  1.00  0.00     0.025 A 
ATOM     19  C3  UNK     1      -0.635  39.460 227.668  1.00  0.00     0.047 A 
ATOM     20 Cl2  UNK     1      -0.349  37.926 228.409  1.00  0.00    -0.083 Cl
ENDBRANCH   3  13
TORSDOF 2
ENDMDL
MODEL 3
REMARK VINA RESULT:      -5.4      2.403      2.977
REMARK  2 active torsions:
REMARK  status: ('A' for Active; 'I' for Inactive)
REMARK    1  A    between atoms: N1_3  and  N2_5 
REMARK       I    between atoms: N3_7  and  C8_16 
REMARK       I    between atoms: N4_8  and  C8_16 
REMARK    2  A    between atoms: C1_9  and  C7_15 
ROOT
ATOM      1  N1  UNK     1       2.318  41.481 228.598  1.00  0.00    -0.297 N 
ATOM      2  H1  UNK     1       1.716  41.958 229.270  1.00  0.00     0.186 HD
ATOM      3  C7  UNK     1       1.894  40.874 227.531  1.00  0.00     0.122 C 
ENDROOT
BRANCH   1   4
ATOM      4  N2  UNK     1       3.704  41.395 228.704  1.00  0.00    -0.133 N 
ATOM      5  C8  UNK     1       4.153  41.953 229.797  1.00  0.00     0.684 C 
ATOM      6  N3  UNK     1       5.468  42.037 230.194  1.00  0.00    -0.234 N 
ATOM      7  N4  UNK     1       3.297  42.540 230.696  1.00  0.00    -0.234 N 
ATOM      8  H5  UNK     1       5.732  42.490 231.062  1.00  0.00     0.174 HD
ATOM      9  H6  UNK     1       6.212  41.644 229.627  1.00  0.00     0.174 HD
ATOM     10  H7  UNK     1       2.295  42.557 230.536  1.00  0.00     0.174 HD
ATOM     11  H8  UNK     1       3.638  42.976 231.546  1.00  0.00     0.174 HD
ATOM     12  H2  UNK     1       4.300  40.947 228.007  1.00  0.00     0.205 HD
ENDBRANCH   1   4
BRANCH   3  13
ATOM     13  C1  UNK     1       0.477  40.813 227.175  1.00  0.00     0.024 A 
ATOM     14  C2  UNK     1      -0.265  39.668 227.461  1.00  0.00     0.047 A 
ATOM     15 Cl1  UNK     1       0.442  38.298 228.240  1.00  0.00    -0.083 Cl
ATOM     16  C4  UNK     1      -1.616  39.609 227.119  1.00  0.00     0.025 A 
ATOM     17  C6  UNK     1      -2.225  40.695 226.491  1.00  0.00     0.003 A 
ATOM     18  C5  UNK     1      -1.482  41.841 226.204  1.00  0.00     0.025 A 
ATOM     19  C3  UNK     1      -0.131  41.900 226.546  1.00  0.00     0.047 A 
ATOM     20 Cl2  UNK     1       0.745  43.341 226.169  1.00  0.00    -0.083 Cl
ENDBRANCH   3  13
TORSDOF 2
ENDMDL
MODEL 4
REMARK VINA RESULT:      -5.3      8.425      9.713
REMARK  2 active torsions:
REMARK  status: ('A' for Active; 'I' for Inactive)
REMARK    1  A    between atoms: N1_3  and  N2_5 
REMARK       I    between atoms: N3_7  and  C8_16 
REMARK       I    between atoms: N4_8  and  C8_16 
REMARK    2  A    between atoms: C1_9  and  C7_15 
ROOT
ATOM      1  N1  UNK     1      -1.198  36.726 233.790  1.00  0.00    -0.297 N 
ATOM      2  H1  UNK     1      -0.688  37.523 233.410  1.00  0.00     0.186 HD
ATOM      3  C7  UNK     1      -0.862  36.081 234.866  1.00  0.00     0.122 C 
ENDROOT
BRANCH   1   4
ATOM      4  N2  UNK     1      -2.348  36.183 233.222  1.00  0.00    -0.133 N 
ATOM      5  C8  UNK     1      -2.450  36.462 231.949  1.00  0.00     0.684 C 
ATOM      6  N3  UNK     1      -3.466  36.076 231.104  1.00  0.00    -0.234 N 
ATOM      7  N4  UNK     1      -1.493  37.211 231.309  1.00  0.00    -0.234 N 
ATOM      8  H5  UNK     1      -3.468  36.337 230.124  1.00  0.00     0.174 HD
ATOM      9  H6  UNK     1      -4.242  35.517 231.441  1.00  0.00     0.174 HD
ATOM     10  H7  UNK     1      -0.684  37.568 231.805  1.00  0.00     0.174 HD
ATOM     11  H8  UNK     1      -1.567  37.433 230.321  1.00  0.00     0.174 HD
ATOM     12  H2  UNK     1      -3.031  35.631 233.740  1.00  0.00     0.205 HD
ENDBRANCH   1   4
BRANCH   3  13
ATOM     13  C1  UNK     1       0.309  36.442 235.664  1.00  0.00     0.024 A 
ATOM     14  C2  UNK     1       0.215  37.450 236.623  1.00  0.00     0.047 A 
ATOM     15 Cl1  UNK     1      -1.262  38.298 236.909  1.00  0.00    -0.083 Cl
ATOM     16  C4  UNK     1       1.333  37.795 237.383  1.00  0.00     0.025 A 
ATOM     17  C6  UNK     1       2.545  37.133 237.183  1.00  0.00     0.003 A 
ATOM     18  C5  UNK     1       2.638  36.125 236.223  1.00  0.00     0.025 A 
ATOM     19  C3  UNK     1       1.520  35.780 235.463  1.00  0.00     0.047 A 
ATOM     20 Cl2  UNK     1       1.688  34.525 234.287  1.00  0.00    -0.083 Cl
ENDBRANCH   3  13
TORSDOF 2
ENDMDL
MODEL 5
REMARK VINA RESULT:      -5.3      8.425      9.635
REMARK  2 active torsions:
REMARK  status: ('A' for Active; 'I' for Inactive)
REMARK    1  A    between atoms: N1_3  and  N2_5 
REMARK       I    between atoms: N3_7  and  C8_16 
REMARK       I    between atoms: N4_8  and  C8_16 
REMARK    2  A    between atoms: C1_9  and  C7_15 
ROOT
ATOM      1  N1  UNK     1      -1.200  36.746 233.793  1.00  0.00    -0.297 N 
ATOM      2  H1  UNK     1      -0.701  37.559 233.433  1.00  0.00     0.186 HD
ATOM      3  C7  UNK     1      -0.858  36.084 234.858  1.00  0.00     0.122 C 
ENDROOT
BRANCH   1   4
ATOM      4  N2  UNK     1      -2.339  36.197 233.209  1.00  0.00    -0.133 N 
ATOM      5  C8  UNK     1      -2.426  36.478 231.936  1.00  0.00     0.684 C 
ATOM      6  N3  UNK     1      -3.428  36.086 231.077  1.00  0.00    -0.234 N 
ATOM      7  N4  UNK     1      -1.465  37.234 231.309  1.00  0.00    -0.234 N 
ATOM      8  H5  UNK     1      -3.419  36.349 230.097  1.00  0.00     0.174 HD
ATOM      9  H6  UNK     1      -4.205  35.521 231.402  1.00  0.00     0.174 HD
ATOM     10  H7  UNK     1      -0.665  37.595 231.817  1.00  0.00     0.174 HD
ATOM     11  H8  UNK     1      -1.527  37.456 230.321  1.00  0.00     0.174 HD
ATOM     12  H2  UNK     1      -3.026  35.640 233.717  1.00  0.00     0.205 HD
ENDBRANCH   1   4
BRANCH   3  13
ATOM     13  C1  UNK     1       0.303  36.448 235.668  1.00  0.00     0.024 A 
ATOM     14  C2  UNK     1       1.518  35.789 235.482  1.00  0.00     0.047 A 
ATOM     15 Cl1  UNK     1       1.702  34.538 234.304  1.00  0.00    -0.083 Cl
ATOM     16  C4  UNK     1       2.625  36.135 236.257  1.00  0.00     0.025 A 
ATOM     17  C6  UNK     1       2.517  37.140 237.218  1.00  0.00     0.003 A 
ATOM     18  C5  UNK     1       1.302  37.800 237.404  1.00  0.00     0.025 A 
ATOM     19  C3  UNK     1       0.195  37.454 236.629  1.00  0.00     0.047 A 
ATOM     20 Cl2  UNK     1      -1.287  38.301 236.897  1.00  0.00    -0.083 Cl
ENDBRANCH   3  13
TORSDOF 2
ENDMDL
MODEL 6
REMARK VINA RESULT:      -5.2      3.308      4.506
REMARK  2 active torsions:
REMARK  status: ('A' for Active; 'I' for Inactive)
REMARK    1  A    between atoms: N1_3  and  N2_5 
REMARK       I    between atoms: N3_7  and  C8_16 
REMARK       I    between atoms: N4_8  and  C8_16 
REMARK    2  A    between atoms: C1_9  and  C7_15 
ROOT
ATOM      1  N1  UNK     1       0.102  40.341 227.864  1.00  0.00    -0.297 N 
ATOM      2  H1  UNK     1       0.416  39.801 227.057  1.00  0.00     0.186 HD
ATOM      3  C7  UNK     1      -1.100  40.297 228.355  1.00  0.00     0.122 C 
ENDROOT
BRANCH   1   4
ATOM      4  N2  UNK     1       0.904  41.222 228.584  1.00  0.00    -0.133 N 
ATOM      5  C8  UNK     1       1.448  42.132 227.820  1.00  0.00     0.684 C 
ATOM      6  N3  UNK     1       2.291  43.144 228.223  1.00  0.00    -0.234 N 
ATOM      7  N4  UNK     1       1.212  42.156 226.467  1.00  0.00    -0.234 N 
ATOM      8  H5  UNK     1       2.671  43.811 227.561  1.00  0.00     0.174 HD
ATOM      9  H6  UNK     1       2.553  43.250 229.197  1.00  0.00     0.174 HD
ATOM     10  H7  UNK     1       0.610  41.469 226.026  1.00  0.00     0.174 HD
ATOM     11  H8  UNK     1       1.632  42.859 225.868  1.00  0.00     0.174 HD
ATOM     12  H2  UNK     1       1.049  41.164 229.592  1.00  0.00     0.205 HD
ENDBRANCH   1   4
BRANCH   3  13
ATOM     13  C1  UNK     1      -2.148  39.449 227.791  1.00  0.00     0.024 A 
ATOM     14  C2  UNK     1      -2.868  39.877 226.677  1.00  0.00     0.047 A 
ATOM     15 Cl1  UNK     1      -2.557  41.401 225.925  1.00  0.00    -0.083 Cl
ATOM     16  C4  UNK     1      -3.870  39.068 226.140  1.00  0.00     0.025 A 
ATOM     17  C6  UNK     1      -4.151  37.830 226.718  1.00  0.00     0.003 A 
ATOM     18  C5  UNK     1      -3.430  37.401 227.833  1.00  0.00     0.025 A 
ATOM     19  C3  UNK     1      -2.429  38.211 228.370  1.00  0.00     0.047 A 
ATOM     20 Cl2  UNK     1      -1.565  37.634 229.751  1.00  0.00    -0.083 Cl
ENDBRANCH   3  13
TORSDOF 2
ENDMDL
MODEL 7
REMARK VINA RESULT:      -5.2      3.302      3.936
REMARK  2 active torsions:
REMARK  status: ('A' for Active; 'I' for Inactive)
REMARK    1  A    between atoms: N1_3  and  N2_5 
REMARK       I    between atoms: N3_7  and  C8_16 
REMARK       I    between atoms: N4_8  and  C8_16 
REMARK    2  A    between atoms: C1_9  and  C7_15 
ROOT
ATOM      1  N1  UNK     1       0.117  40.341 227.864  1.00  0.00    -0.297 N 
ATOM      2  H1  UNK     1       0.421  39.812 227.046  1.00  0.00     0.186 HD
ATOM      3  C7  UNK     1      -1.076  40.284 228.374  1.00  0.00     0.122 C 
ENDROOT
BRANCH   1   4
ATOM      4  N2  UNK     1       0.925  41.219 228.581  1.00  0.00    -0.133 N 
ATOM      5  C8  UNK     1       1.464  42.132 227.816  1.00  0.00     0.684 C 
ATOM      6  N3  UNK     1       2.309  43.142 228.217  1.00  0.00    -0.234 N 
ATOM      7  N4  UNK     1       1.216  42.162 226.465  1.00  0.00    -0.234 N 
ATOM      8  H5  UNK     1       2.685  43.812 227.555  1.00  0.00     0.174 HD
ATOM      9  H6  UNK     1       2.580  43.243 229.189  1.00  0.00     0.174 HD
ATOM     10  H7  UNK     1       0.611  41.477 226.026  1.00  0.00     0.174 HD
ATOM     11  H8  UNK     1       1.632  42.867 225.866  1.00  0.00     0.174 HD
ATOM     12  H2  UNK     1       1.078  41.157 229.587  1.00  0.00     0.205 HD
ENDBRANCH   1   4
BRANCH   3  13
ATOM     13  C1  UNK     1      -2.128  39.436 227.817  1.00  0.00     0.024 A 
ATOM     14  C2  UNK     1      -2.411  38.201 228.400  1.00  0.00     0.047 A 
ATOM     15 Cl1  UNK     1      -1.548  37.631 229.784  1.00  0.00    -0.083 Cl
ATOM     16  C4  UNK     1      -3.414  37.391 227.866  1.00  0.00     0.025 A 
ATOM     17  C6  UNK     1      -4.134  37.816 226.750  1.00  0.00     0.003 A 
ATOM     18  C5  UNK     1      -3.851  39.051 226.167  1.00  0.00     0.025 A 
ATOM     19  C3  UNK     1      -2.849  39.861 226.700  1.00  0.00     0.047 A 
ATOM     20 Cl2  UNK     1      -2.537  41.382 225.941  1.00  0.00    -0.083 Cl
ENDBRANCH   3  13
TORSDOF 2
ENDMDL
MODEL 8
REMARK VINA RESULT:      -5.2     10.377     11.024
REMARK  2 active torsions:
REMARK  status: ('A' for Active; 'I' for Inactive)
REMARK    1  A    between atoms: N1_3  and  N2_5 
REMARK       I    between atoms: N3_7  and  C8_16 
REMARK       I    between atoms: N4_8  and  C8_16 
REMARK    2  A    between atoms: C1_9  and  C7_15 
ROOT
ATOM      1  N1  UNK     1       1.811  36.903 237.696  1.00  0.00    -0.297 N 
ATOM      2  H1  UNK     1       1.406  36.893 238.632  1.00  0.00     0.186 HD
ATOM      3  C7  UNK     1       1.238  36.408 236.641  1.00  0.00     0.122 C 
ENDROOT
BRANCH   1   4
ATOM      4  N2  UNK     1       3.053  37.447 237.381  1.00  0.00    -0.133 N 
ATOM      5  C8  UNK     1       3.990  37.051 238.201  1.00  0.00     0.684 C 
ATOM      6  N3  UNK     1       5.319  37.407 238.162  1.00  0.00    -0.234 N 
ATOM      7  N4  UNK     1       3.710  36.192 239.236  1.00  0.00    -0.234 N 
ATOM      8  H5  UNK     1       5.984  37.052 238.841  1.00  0.00     0.174 HD
ATOM      9  H6  UNK     1       5.671  38.037 237.449  1.00  0.00     0.174 HD
ATOM     10  H7  UNK     1       2.770  35.844 239.391  1.00  0.00     0.174 HD
ATOM     11  H8  UNK     1       4.432  35.881 239.877  1.00  0.00     0.174 HD
ATOM     12  H2  UNK     1       3.213  38.083 236.599  1.00  0.00     0.205 HD
ENDBRANCH   1   4
BRANCH   3  13
ATOM     13  C1  UNK     1      -0.078  35.774 236.687  1.00  0.00     0.024 A 
ATOM     14  C2  UNK     1      -0.183  34.385 236.732  1.00  0.00     0.047 A 
ATOM     15 Cl1  UNK     1       1.214  33.368 236.740  1.00  0.00    -0.083 Cl
ATOM     16  C4  UNK     1      -1.439  33.781 236.775  1.00  0.00     0.025 A 
ATOM     17  C6  UNK     1      -2.592  34.566 236.771  1.00  0.00     0.003 A 
ATOM     18  C5  UNK     1      -2.487  35.957 236.726  1.00  0.00     0.025 A 
ATOM     19  C3  UNK     1      -1.230  36.561 236.684  1.00  0.00     0.047 A 
ATOM     20 Cl2  UNK     1      -1.155  38.286 236.628  1.00  0.00    -0.083 Cl
ENDBRANCH   3  13
TORSDOF 2
ENDMDL
MODEL 9
REMARK VINA RESULT:      -5.1     10.390     11.209
REMARK  2 active torsions:
REMARK  status: ('A' for Active; 'I' for Inactive)
REMARK    1  A    between atoms: N1_3  and  N2_5 
REMARK       I    between atoms: N3_7  and  C8_16 
REMARK       I    between atoms: N4_8  and  C8_16 
REMARK    2  A    between atoms: C1_9  and  C7_15 
ROOT
ATOM      1  N1  UNK     1       1.818  36.876 237.720  1.00  0.00    -0.297 N 
ATOM      2  H1  UNK     1       1.417  36.842 238.658  1.00  0.00     0.186 HD
ATOM      3  C7  UNK     1       1.240  36.408 236.655  1.00  0.00     0.122 C 
ENDROOT
BRANCH   1   4
ATOM      4  N2  UNK     1       3.058  37.429 237.412  1.00  0.00    -0.133 N 
ATOM      5  C8  UNK     1       3.996  37.025 238.228  1.00  0.00     0.684 C 
ATOM      6  N3  UNK     1       5.324  37.387 238.194  1.00  0.00    -0.234 N 
ATOM      7  N4  UNK     1       3.718  36.152 239.252  1.00  0.00    -0.234 N 
ATOM      8  H5  UNK     1       5.989  37.026 238.869  1.00  0.00     0.174 HD
ATOM      9  H6  UNK     1       5.674  38.027 237.489  1.00  0.00     0.174 HD
ATOM     10  H7  UNK     1       2.779  35.799 239.402  1.00  0.00     0.174 HD
ATOM     11  H8  UNK     1       4.441  35.836 239.889  1.00  0.00     0.174 HD
ATOM     12  H2  UNK     1       3.216  38.075 236.639  1.00  0.00     0.205 HD
ENDBRANCH   1   4
BRANCH   3  13
ATOM     13  C1  UNK     1      -0.077  35.773 236.692  1.00  0.00     0.024 A 
ATOM     14  C2  UNK     1      -1.230  36.557 236.684  1.00  0.00     0.047 A 
ATOM     15 Cl1  UNK     1      -1.156  38.282 236.628  1.00  0.00    -0.083 Cl
ATOM     16  C4  UNK     1      -2.486  35.950 236.721  1.00  0.00     0.025 A 
ATOM     17  C6  UNK     1      -2.588  34.560 236.765  1.00  0.00     0.003 A 
ATOM     18  C5  UNK     1      -1.434  33.775 236.772  1.00  0.00     0.025 A 
ATOM     19  C3  UNK     1      -0.178  34.382 236.736  1.00  0.00     0.047 A 
ATOM     20 Cl2  UNK     1       1.220  33.367 236.747  1.00  0.00    -0.083 Cl
ENDBRANCH   3  13
TORSDOF 2
ENDMDL
