MODEL 1
REMARK VINA RESULT:      -7.9      0.000      0.000
REMARK  10 active torsions:
REMARK  status: ('A' for Active; 'I' for Inactive)
REMARK    1  A    between atoms: O1_1  and  C8_19 
REMARK    2  A    between atoms: O2_2  and  C9_20 
REMARK    3  A    between atoms: O2_2  and  C19_30 
REMARK    4  A    between atoms: O3_3  and  C14_25 
REMARK    5  A    between atoms: O6_6  and  C22_33 
REMARK    6  A    between atoms: O7_7  and  C27_38 
REMARK    7  A    between atoms: O8_8  and  C28_39 
REMARK    8  A    between atoms: O9_9  and  C30_41 
REMARK    9  A    between atoms: C4_15  and  C14_25 
REMARK   10  A    between atoms: C19_30  and  C24_35 
ROOT
ATOM      1  N1  UNK     1       0.825  36.972 234.866  1.00  0.00     0.099 N 
ATOM      2  N2  UNK     1       3.094  34.033 235.474  1.00  0.00    -0.357 N 
ATOM      3  C1  UNK     1      -0.136  34.452 233.645  1.00  0.00     0.010 C 
ATOM      4  C2  UNK     1      -1.105  35.558 234.107  1.00  0.00     0.021 C 
ATOM      5  C3  UNK     1       1.225  35.073 233.271  1.00  0.00     0.048 C 
ATOM      6  C4  UNK     1      -0.779  33.628 232.509  1.00  0.00     0.121 C 
ATOM      7  C5  UNK     1       1.810  35.966 234.378  1.00  0.00     0.273 C 
ATOM      8  C6  UNK     1      -0.472  36.384 235.236  1.00  0.00     0.278 C 
ATOM      9  C7  UNK     1      -1.561  36.443 232.938  1.00  0.00     0.042 C 
ATOM     10  C8  UNK     1      -1.262  34.488 231.335  1.00  0.00     0.164 C 
ATOM     11  C9  UNK     1      -2.177  35.621 231.808  1.00  0.00     0.162 C 
ATOM     12  C10 UNK     1       2.421  35.220 235.530  1.00  0.00     0.050 A 
ATOM     13  C11 UNK     1       1.388  37.774 235.980  1.00  0.00     0.278 C 
ATOM     14  C12 UNK     1       2.452  35.673 236.834  1.00  0.00    -0.019 A 
ATOM     15  C13 UNK     1       1.804  36.956 237.228  1.00  0.00     0.072 C 
ATOM     16  C15 UNK     1       3.146  34.707 237.611  1.00  0.00    -0.001 A 
ATOM     17  C16 UNK     1       3.537  33.689 236.734  1.00  0.00     0.046 A 
ATOM     18  C18 UNK     1       3.483  34.592 238.974  1.00  0.00     0.017 A 
ATOM     19  C20 UNK     1       4.251  32.563 237.159  1.00  0.00     0.067 A 
ATOM     20  C21 UNK     1       4.195  33.471 239.412  1.00  0.00     0.038 A 
ATOM     21  C22 UNK     1       4.572  32.472 238.516  1.00  0.00     0.070 A 
ATOM     22  H17 UNK     1       3.248  33.482 234.642  1.00  0.00     0.166 HD
ENDROOT
BRANCH  11  23
ATOM     23  O2  UNK     1      -2.439  36.483 230.700  1.00  0.00    -0.309 OA
BRANCH  23  24
ATOM     24  C19 UNK     1      -1.353  36.858 229.971  1.00  0.00     0.294 C 
ATOM     25  O5  UNK     1      -0.252  36.332 229.997  1.00  0.00    -0.259 OA
BRANCH  24  26
ATOM     26  C24 UNK     1      -1.680  38.025 229.114  1.00  0.00     0.045 A 
ATOM     27  C25 UNK     1      -2.636  37.903 228.105  1.00  0.00     0.057 A 
ATOM     28  C28 UNK     1      -2.943  39.001 227.300  1.00  0.00     0.105 A 
ATOM     29  C30 UNK     1      -2.297  40.218 227.505  1.00  0.00     0.135 A 
ATOM     30  C27 UNK     1      -1.340  40.340 228.514  1.00  0.00     0.105 A 
ATOM     31  C26 UNK     1      -1.032  39.243 229.318  1.00  0.00     0.057 A 
BRANCH  28  32
ATOM     32  O8  UNK     1      -3.879  38.869 226.319  1.00  0.00    -0.353 OA
ATOM     33  C32 UNK     1      -4.992  38.020 226.594  1.00  0.00     0.210 C 
ENDBRANCH  28  32
BRANCH  29  34
ATOM     34  O9  UNK     1      -2.596  41.291 226.718  1.00  0.00    -0.351 OA
ATOM     35  C33 UNK     1      -1.834  41.452 225.524  1.00  0.00     0.210 C 
ENDBRANCH  29  34
BRANCH  30  36
ATOM     36  O7  UNK     1      -0.702  41.525 228.724  1.00  0.00    -0.353 OA
ATOM     37  C31 UNK     1       0.723  41.513 228.655  1.00  0.00     0.210 C 
ENDBRANCH  30  36
ENDBRANCH  24  26
ENDBRANCH  23  24
ENDBRANCH  11  23
BRANCH  10  38
ATOM     38  O1  UNK     1      -2.031  33.676 230.439  1.00  0.00    -0.387 OA
ATOM     39  C17 UNK     1      -3.227  33.229 231.053  1.00  0.00     0.202 C 
ENDBRANCH  10  38
BRANCH   6  40
ATOM     40  C14 UNK     1       0.171  32.561 232.042  1.00  0.00     0.265 C 
ATOM     41  O4  UNK     1       0.748  32.582 230.962  1.00  0.00    -0.265 OA
BRANCH  40  42
ATOM     42  O3  UNK     1       0.277  31.594 232.997  1.00  0.00    -0.326 OA
ATOM     43  C23 UNK     1       1.610  31.164 233.290  1.00  0.00     0.213 C 
ENDBRANCH  40  42
ENDBRANCH   6  40
BRANCH  21  44
ATOM     44  O6  UNK     1       5.268  31.390 238.969  1.00  0.00    -0.356 OA
ATOM     45  C29 UNK     1       6.424  31.650 239.762  1.00  0.00     0.210 C 
ENDBRANCH  21  44
TORSDOF 10
ENDMDL
MODEL 2
REMARK VINA RESULT:      -7.8      0.070      1.954
REMARK  10 active torsions:
REMARK  status: ('A' for Active; 'I' for Inactive)
REMARK    1  A    between atoms: O1_1  and  C8_19 
REMARK    2  A    between atoms: O2_2  and  C9_20 
REMARK    3  A    between atoms: O2_2  and  C19_30 
REMARK    4  A    between atoms: O3_3  and  C14_25 
REMARK    5  A    between atoms: O6_6  and  C22_33 
REMARK    6  A    between atoms: O7_7  and  C27_38 
REMARK    7  A    between atoms: O8_8  and  C28_39 
REMARK    8  A    between atoms: O9_9  and  C30_41 
REMARK    9  A    between atoms: C4_15  and  C14_25 
REMARK   10  A    between atoms: C19_30  and  C24_35 
ROOT
ATOM      1  N1  UNK     1       0.811  36.985 234.883  1.00  0.00     0.099 N 
ATOM      2  N2  UNK     1       3.075  34.047 235.508  1.00  0.00    -0.357 N 
ATOM      3  C1  UNK     1      -0.151  34.461 233.671  1.00  0.00     0.010 C 
ATOM      4  C2  UNK     1      -1.119  35.570 234.127  1.00  0.00     0.021 C 
ATOM      5  C3  UNK     1       1.211  35.079 233.297  1.00  0.00     0.048 C 
ATOM      6  C4  UNK     1      -0.793  33.632 232.538  1.00  0.00     0.121 C 
ATOM      7  C5  UNK     1       1.795  35.976 234.401  1.00  0.00     0.273 C 
ATOM      8  C6  UNK     1      -0.487  36.400 235.253  1.00  0.00     0.278 C 
ATOM      9  C7  UNK     1      -1.572  36.451 232.953  1.00  0.00     0.042 C 
ATOM     10  C8  UNK     1      -1.273  34.488 231.359  1.00  0.00     0.164 C 
ATOM     11  C9  UNK     1      -2.187  35.624 231.825  1.00  0.00     0.162 C 
ATOM     12  C10 UNK     1       2.403  35.235 235.558  1.00  0.00     0.050 A 
ATOM     13  C11 UNK     1       1.373  37.791 235.994  1.00  0.00     0.278 C 
ATOM     14  C12 UNK     1       2.432  35.693 236.860  1.00  0.00    -0.019 A 
ATOM     15  C13 UNK     1       1.785  36.979 237.247  1.00  0.00     0.072 C 
ATOM     16  C15 UNK     1       3.124  34.730 237.642  1.00  0.00    -0.001 A 
ATOM     17  C16 UNK     1       3.516  33.707 236.771  1.00  0.00     0.046 A 
ATOM     18  C18 UNK     1       3.458  34.621 239.007  1.00  0.00     0.017 A 
ATOM     19  C20 UNK     1       4.227  32.582 237.202  1.00  0.00     0.067 A 
ATOM     20  C21 UNK     1       4.168  33.501 239.451  1.00  0.00     0.038 A 
ATOM     21  C22 UNK     1       4.546  32.498 238.560  1.00  0.00     0.070 A 
ATOM     22  H17 UNK     1       3.230  33.491 234.679  1.00  0.00     0.166 HD
ENDROOT
BRANCH  11  23
ATOM     23  O2  UNK     1      -2.446  36.481 230.713  1.00  0.00    -0.309 OA
BRANCH  23  24
ATOM     24  C19 UNK     1      -1.356  36.870 229.998  1.00  0.00     0.294 C 
ATOM     25  O5  UNK     1      -0.249  36.357 230.036  1.00  0.00    -0.259 OA
BRANCH  24  26
ATOM     26  C24 UNK     1      -1.686  38.035 229.139  1.00  0.00     0.045 A 
ATOM     27  C25 UNK     1      -1.011  39.243 229.314  1.00  0.00     0.057 A 
ATOM     28  C28 UNK     1      -1.320  40.337 228.505  1.00  0.00     0.105 A 
ATOM     29  C30 UNK     1      -2.301  40.223 227.522  1.00  0.00     0.135 A 
ATOM     30  C27 UNK     1      -2.977  39.014 227.347  1.00  0.00     0.105 A 
ATOM     31  C26 UNK     1      -2.668  37.920 228.156  1.00  0.00     0.057 A 
BRANCH  28  32
ATOM     32  O8  UNK     1      -0.653  41.512 228.685  1.00  0.00    -0.353 OA
ATOM     33  C32 UNK     1       0.772  41.456 228.675  1.00  0.00     0.210 C 
ENDBRANCH  28  32
BRANCH  29  34
ATOM     34  O9  UNK     1      -2.604  41.292 226.732  1.00  0.00    -0.351 OA
ATOM     35  C33 UNK     1      -1.919  41.391 225.486  1.00  0.00     0.210 C 
ENDBRANCH  29  34
BRANCH  30  36
ATOM     36  O7  UNK     1      -3.938  38.889 226.390  1.00  0.00    -0.353 OA
ATOM     37  C31 UNK     1      -4.845  37.797 226.523  1.00  0.00     0.210 C 
ENDBRANCH  30  36
ENDBRANCH  24  26
ENDBRANCH  23  24
ENDBRANCH  11  23
BRANCH  10  38
ATOM     38  O1  UNK     1      -2.041  33.673 230.465  1.00  0.00    -0.387 OA
ATOM     39  C17 UNK     1      -3.226  33.208 231.088  1.00  0.00     0.202 C 
ENDBRANCH  10  38
BRANCH   6  40
ATOM     40  C14 UNK     1       0.157  32.562 232.077  1.00  0.00     0.265 C 
ATOM     41  O4  UNK     1       0.691  32.548 230.976  1.00  0.00    -0.265 OA
BRANCH  40  42
ATOM     42  O3  UNK     1       0.317  31.638 233.066  1.00  0.00    -0.326 OA
ATOM     43  C23 UNK     1       1.646  31.130 233.224  1.00  0.00     0.213 C 
ENDBRANCH  40  42
ENDBRANCH   6  40
BRANCH  21  44
ATOM     44  O6  UNK     1       5.240  31.417 239.019  1.00  0.00    -0.356 OA
ATOM     45  C29 UNK     1       6.516  31.668 239.603  1.00  0.00     0.210 C 
ENDBRANCH  21  44
TORSDOF 10
ENDMDL
MODEL 3
REMARK VINA RESULT:      -7.5      4.251      9.918
REMARK  10 active torsions:
REMARK  status: ('A' for Active; 'I' for Inactive)
REMARK    1  A    between atoms: O1_1  and  C8_19 
REMARK    2  A    between atoms: O2_2  and  C9_20 
REMARK    3  A    between atoms: O2_2  and  C19_30 
REMARK    4  A    between atoms: O3_3  and  C14_25 
REMARK    5  A    between atoms: O6_6  and  C22_33 
REMARK    6  A    between atoms: O7_7  and  C27_38 
REMARK    7  A    between atoms: O8_8  and  C28_39 
REMARK    8  A    between atoms: O9_9  and  C30_41 
REMARK    9  A    between atoms: C4_15  and  C14_25 
REMARK   10  A    between atoms: C19_30  and  C24_35 
ROOT
ATOM      1  N1  UNK     1      -0.019  35.335 229.709  1.00  0.00     0.099 N 
ATOM      2  N2  UNK     1       0.143  32.304 227.485  1.00  0.00    -0.357 N 
ATOM      3  C1  UNK     1       0.797  32.864 231.121  1.00  0.00     0.010 C 
ATOM      4  C2  UNK     1       1.267  34.259 231.577  1.00  0.00     0.021 C 
ATOM      5  C3  UNK     1      -0.560  32.981 230.397  1.00  0.00     0.048 C 
ATOM      6  C4  UNK     1       0.783  31.892 232.320  1.00  0.00     0.121 C 
ATOM      7  C5  UNK     1      -0.556  34.019 229.263  1.00  0.00     0.273 C 
ATOM      8  C6  UNK     1       1.282  35.231 230.389  1.00  0.00     0.278 C 
ATOM      9  C7  UNK     1       0.421  34.793 232.743  1.00  0.00     0.042 C 
ATOM     10  C8  UNK     1      -0.039  32.409 233.508  1.00  0.00     0.164 C 
ATOM     11  C9  UNK     1       0.392  33.819 233.918  1.00  0.00     0.162 C 
ATOM     12  C10 UNK     1       0.124  33.569 228.001  1.00  0.00     0.050 A 
ATOM     13  C11 UNK     1       0.040  36.297 228.582  1.00  0.00     0.278 C 
ATOM     14  C12 UNK     1       0.786  34.403 227.122  1.00  0.00    -0.019 A 
ATOM     15  C13 UNK     1       0.936  35.861 227.396  1.00  0.00     0.072 C 
ATOM     16  C15 UNK     1       1.254  33.609 226.041  1.00  0.00    -0.001 A 
ATOM     17  C16 UNK     1       0.838  32.297 226.294  1.00  0.00     0.046 A 
ATOM     18  C18 UNK     1       1.991  33.871 224.869  1.00  0.00     0.017 A 
ATOM     19  C20 UNK     1       1.125  31.236 225.428  1.00  0.00     0.067 A 
ATOM     20  C21 UNK     1       2.286  32.819 223.996  1.00  0.00     0.038 A 
ATOM     21  C22 UNK     1       1.859  31.522 224.273  1.00  0.00     0.070 A 
ATOM     22  H17 UNK     1      -0.283  31.491 227.905  1.00  0.00     0.166 HD
ENDROOT
BRANCH  11  23
ATOM     23  O2  UNK     1      -0.525  34.305 234.899  1.00  0.00    -0.309 OA
BRANCH  23  24
ATOM     24  C19 UNK     1      -0.132  35.415 235.579  1.00  0.00     0.294 C 
ATOM     25  O5  UNK     1      -0.645  36.521 235.511  1.00  0.00    -0.259 OA
BRANCH  24  26
ATOM     26  C24 UNK     1       1.036  35.110 236.443  1.00  0.00     0.045 A 
ATOM     27  C25 UNK     1       0.974  34.053 237.351  1.00  0.00     0.057 A 
ATOM     28  C28 UNK     1       2.073  33.765 238.161  1.00  0.00     0.105 A 
ATOM     29  C30 UNK     1       3.232  34.534 238.063  1.00  0.00     0.135 A 
ATOM     30  C27 UNK     1       3.294  35.592 237.155  1.00  0.00     0.105 A 
ATOM     31  C26 UNK     1       2.195  35.879 236.345  1.00  0.00     0.057 A 
BRANCH  28  32
ATOM     32  O8  UNK     1       2.001  32.730 239.044  1.00  0.00    -0.353 OA
ATOM     33  C32 UNK     1       1.085  31.680 238.738  1.00  0.00     0.210 C 
ENDBRANCH  28  32
BRANCH  29  34
ATOM     34  O9  UNK     1       4.306  34.254 238.856  1.00  0.00    -0.351 OA
ATOM     35  C33 UNK     1       4.401  34.961 240.091  1.00  0.00     0.210 C 
ENDBRANCH  29  34
BRANCH  30  36
ATOM     36  O7  UNK     1       4.420  36.350 237.049  1.00  0.00    -0.353 OA
ATOM     37  C31 UNK     1       4.397  37.635 237.667  1.00  0.00     0.210 C 
ENDBRANCH  30  36
ENDBRANCH  24  26
ENDBRANCH  23  24
ENDBRANCH  11  23
BRANCH  10  38
ATOM     38  O1  UNK     1       0.180  31.558 234.640  1.00  0.00    -0.387 OA
ATOM     39  C17 UNK     1       1.562  31.439 234.930  1.00  0.00     0.202 C 
ENDBRANCH  10  38
BRANCH   6  40
ATOM     40  C14 UNK     1       0.305  30.536 231.883  1.00  0.00     0.265 C 
ATOM     41  O4  UNK     1      -0.789  30.069 232.170  1.00  0.00    -0.265 OA
BRANCH  40  42
ATOM     42  O3  UNK     1       1.271  29.932 231.134  1.00  0.00    -0.326 OA
ATOM     43  C23 UNK     1       0.843  29.440 229.860  1.00  0.00     0.213 C 
ENDBRANCH  40  42
ENDBRANCH   6  40
BRANCH  21  44
ATOM     44  O6  UNK     1       2.158  30.515 223.403  1.00  0.00    -0.356 OA
ATOM     45  C29 UNK     1       3.314  30.688 222.587  1.00  0.00     0.210 C 
ENDBRANCH  21  44
TORSDOF 10
ENDMDL
MODEL 4
REMARK VINA RESULT:      -7.4      4.128     10.055
REMARK  10 active torsions:
REMARK  status: ('A' for Active; 'I' for Inactive)
REMARK    1  A    between atoms: O1_1  and  C8_19 
REMARK    2  A    between atoms: O2_2  and  C9_20 
REMARK    3  A    between atoms: O2_2  and  C19_30 
REMARK    4  A    between atoms: O3_3  and  C14_25 
REMARK    5  A    between atoms: O6_6  and  C22_33 
REMARK    6  A    between atoms: O7_7  and  C27_38 
REMARK    7  A    between atoms: O8_8  and  C28_39 
REMARK    8  A    between atoms: O9_9  and  C30_41 
REMARK    9  A    between atoms: C4_15  and  C14_25 
REMARK   10  A    between atoms: C19_30  and  C24_35 
ROOT
ATOM      1  N1  UNK     1      -0.340  35.218 230.067  1.00  0.00     0.099 N 
ATOM      2  N2  UNK     1       0.179  32.334 227.708  1.00  0.00    -0.357 N 
ATOM      3  C1  UNK     1       0.798  32.811 231.361  1.00  0.00     0.010 C 
ATOM      4  C2  UNK     1       1.092  34.233 231.877  1.00  0.00     0.021 C 
ATOM      5  C3  UNK     1      -0.571  32.787 230.651  1.00  0.00     0.048 C 
ATOM      6  C4  UNK     1       0.920  31.794 232.515  1.00  0.00     0.121 C 
ATOM      7  C5  UNK     1      -0.711  33.866 229.564  1.00  0.00     0.273 C 
ATOM      8  C6  UNK     1       0.971  35.251 230.734  1.00  0.00     0.278 C 
ATOM      9  C7  UNK     1       0.199  34.604 233.071  1.00  0.00     0.042 C 
ATOM     10  C8  UNK     1       0.053  32.149 233.730  1.00  0.00     0.164 C 
ATOM     11  C9  UNK     1       0.307  33.583 234.201  1.00  0.00     0.162 C 
ATOM     12  C10 UNK     1       0.006  33.563 228.280  1.00  0.00     0.050 A 
ATOM     13  C11 UNK     1      -0.416  36.229 228.984  1.00  0.00     0.278 C 
ATOM     14  C12 UNK     1       0.547  34.512 227.436  1.00  0.00    -0.019 A 
ATOM     15  C13 UNK     1       0.515  35.963 227.775  1.00  0.00     0.072 C 
ATOM     16  C15 UNK     1       1.100  33.832 226.317  1.00  0.00    -0.001 A 
ATOM     17  C16 UNK     1       0.856  32.468 226.513  1.00  0.00     0.046 A 
ATOM     18  C18 UNK     1       1.785  34.237 225.155  1.00  0.00     0.017 A 
ATOM     19  C20 UNK     1       1.266  31.491 225.598  1.00  0.00     0.067 A 
ATOM     20  C21 UNK     1       2.201  33.271 224.233  1.00  0.00     0.038 A 
ATOM     21  C22 UNK     1       1.944  31.918 224.454  1.00  0.00     0.070 A 
ATOM     22  H17 UNK     1      -0.135  31.455 228.092  1.00  0.00     0.166 HD
ENDROOT
BRANCH  11  23
ATOM     23  O2  UNK     1      -0.653  33.905 235.207  1.00  0.00    -0.309 OA
BRANCH  23  24
ATOM     24  C19 UNK     1      -0.363  34.986 235.979  1.00  0.00     0.294 C 
ATOM     25  O5  UNK     1      -1.016  36.015 236.052  1.00  0.00    -0.259 OA
BRANCH  24  26
ATOM     26  C24 UNK     1       0.887  34.758 236.747  1.00  0.00     0.045 A 
ATOM     27  C25 UNK     1       1.986  35.595 236.555  1.00  0.00     0.057 A 
ATOM     28  C28 UNK     1       3.159  35.381 237.278  1.00  0.00     0.105 A 
ATOM     29  C30 UNK     1       3.234  34.332 238.193  1.00  0.00     0.135 A 
ATOM     30  C27 UNK     1       2.134  33.494 238.385  1.00  0.00     0.105 A 
ATOM     31  C26 UNK     1       0.960  33.708 237.661  1.00  0.00     0.057 A 
BRANCH  28  32
ATOM     32  O8  UNK     1       4.226  36.206 237.082  1.00  0.00    -0.353 OA
ATOM     33  C32 UNK     1       4.110  37.542 237.569  1.00  0.00     0.210 C 
ENDBRANCH  28  32
BRANCH  29  34
ATOM     34  O9  UNK     1       4.381  34.122 238.899  1.00  0.00    -0.351 OA
ATOM     35  C33 UNK     1       4.541  34.858 240.109  1.00  0.00     0.210 C 
ENDBRANCH  29  34
BRANCH  30  36
ATOM     36  O7  UNK     1       2.193  32.466 239.276  1.00  0.00    -0.353 OA
ATOM     37  C31 UNK     1       1.536  31.254 238.911  1.00  0.00     0.210 C 
ENDBRANCH  30  36
ENDBRANCH  24  26
ENDBRANCH  23  24
ENDBRANCH  11  23
BRANCH  10  38
ATOM     38  O1  UNK     1       0.390  31.284 234.821  1.00  0.00    -0.387 OA
ATOM     39  C17 UNK     1       1.780  31.328 235.097  1.00  0.00     0.202 C 
ENDBRANCH  10  38
BRANCH   6  40
ATOM     40  C14 UNK     1       0.614  30.408 232.020  1.00  0.00     0.265 C 
ATOM     41  O4  UNK     1      -0.363  29.757 232.366  1.00  0.00    -0.265 OA
BRANCH  40  42
ATOM     42  O3  UNK     1       1.581  30.012 231.145  1.00  0.00    -0.326 OA
ATOM     43  C23 UNK     1       1.107  29.460 229.913  1.00  0.00     0.213 C 
ENDBRANCH  40  42
ENDBRANCH   6  40
BRANCH  21  44
ATOM     44  O6  UNK     1       2.358  30.997 223.538  1.00  0.00    -0.356 OA
ATOM     45  C29 UNK     1       1.374  30.096 223.036  1.00  0.00     0.210 C 
ENDBRANCH  21  44
TORSDOF 10
ENDMDL
MODEL 5
REMARK VINA RESULT:      -7.3      3.295     10.904
REMARK  10 active torsions:
REMARK  status: ('A' for Active; 'I' for Inactive)
REMARK    1  A    between atoms: O1_1  and  C8_19 
REMARK    2  A    between atoms: O2_2  and  C9_20 
REMARK    3  A    between atoms: O2_2  and  C19_30 
REMARK    4  A    between atoms: O3_3  and  C14_25 
REMARK    5  A    between atoms: O6_6  and  C22_33 
REMARK    6  A    between atoms: O7_7  and  C27_38 
REMARK    7  A    between atoms: O8_8  and  C28_39 
REMARK    8  A    between atoms: O9_9  and  C30_41 
REMARK    9  A    between atoms: C4_15  and  C14_25 
REMARK   10  A    between atoms: C19_30  and  C24_35 
ROOT
ATOM      1  N1  UNK     1       1.000  34.073 229.651  1.00  0.00     0.099 N 
ATOM      2  N2  UNK     1      -2.133  35.989 228.832  1.00  0.00    -0.357 N 
ATOM      3  C1  UNK     1      -0.901  34.272 231.912  1.00  0.00     0.010 C 
ATOM      4  C2  UNK     1       0.058  33.076 231.754  1.00  0.00     0.021 C 
ATOM      5  C3  UNK     1      -0.293  35.521 231.245  1.00  0.00     0.048 C 
ATOM      6  C4  UNK     1      -1.257  34.470 233.402  1.00  0.00     0.121 C 
ATOM      7  C5  UNK     1       0.141  35.282 229.789  1.00  0.00     0.273 C 
ATOM      8  C6  UNK     1       0.418  32.874 230.275  1.00  0.00     0.278 C 
ATOM      9  C7  UNK     1       1.310  33.228 232.632  1.00  0.00     0.042 C 
ATOM     10  C8  UNK     1      -0.026  34.605 234.305  1.00  0.00     0.164 C 
ATOM     11  C9  UNK     1       0.953  33.446 234.100  1.00  0.00     0.162 C 
ATOM     12  C10 UNK     1      -0.984  35.250 228.795  1.00  0.00     0.050 A 
ATOM     13  C11 UNK     1       1.347  33.824 228.231  1.00  0.00     0.278 C 
ATOM     14  C12 UNK     1      -0.989  34.502 227.635  1.00  0.00    -0.019 A 
ATOM     15  C13 UNK     1       0.136  33.586 227.294  1.00  0.00     0.072 C 
ATOM     16  C15 UNK     1      -2.205  34.772 226.951  1.00  0.00    -0.001 A 
ATOM     17  C16 UNK     1      -2.904  35.707 227.723  1.00  0.00     0.046 A 
ATOM     18  C18 UNK     1      -2.786  34.316 225.751  1.00  0.00     0.017 A 
ATOM     19  C20 UNK     1      -4.156  36.207 227.349  1.00  0.00     0.067 A 
ATOM     20  C21 UNK     1      -4.037  34.808 225.366  1.00  0.00     0.038 A 
ATOM     21  C22 UNK     1      -4.711  35.739 226.155  1.00  0.00     0.070 A 
ATOM     22  H17 UNK     1      -2.390  36.643 229.556  1.00  0.00     0.166 HD
ENDROOT
BRANCH  11  23
ATOM     23  O2  UNK     1       2.147  33.727 234.830  1.00  0.00    -0.309 OA
BRANCH  23  24
ATOM     24  C19 UNK     1       2.504  32.803 235.761  1.00  0.00     0.294 C 
ATOM     25  O5  UNK     1       2.459  31.590 235.627  1.00  0.00    -0.259 OA
BRANCH  24  26
ATOM     26  C24 UNK     1       2.969  33.469 237.004  1.00  0.00     0.045 A 
ATOM     27  C25 UNK     1       2.792  32.843 238.238  1.00  0.00     0.057 A 
ATOM     28  C28 UNK     1       3.231  33.469 239.406  1.00  0.00     0.105 A 
ATOM     29  C30 UNK     1       3.846  34.718 239.339  1.00  0.00     0.135 A 
ATOM     30  C27 UNK     1       4.023  35.344 238.104  1.00  0.00     0.105 A 
ATOM     31  C26 UNK     1       3.584  34.719 236.937  1.00  0.00     0.057 A 
BRANCH  28  32
ATOM     32  O8  UNK     1       3.053  32.847 240.605  1.00  0.00    -0.353 OA
ATOM     33  C32 UNK     1       3.838  31.682 240.854  1.00  0.00     0.210 C 
ENDBRANCH  28  32
BRANCH  29  34
ATOM     34  O9  UNK     1       4.273  35.329 240.480  1.00  0.00    -0.351 OA
ATOM     35  C33 UNK     1       5.622  35.090 240.877  1.00  0.00     0.210 C 
ENDBRANCH  29  34
BRANCH  30  36
ATOM     36  O7  UNK     1       4.622  36.564 238.025  1.00  0.00    -0.353 OA
ATOM     37  C31 UNK     1       3.817  37.654 237.581  1.00  0.00     0.210 C 
ENDBRANCH  30  36
ENDBRANCH  24  26
ENDBRANCH  23  24
ENDBRANCH  11  23
BRANCH  10  38
ATOM     38  O1  UNK     1      -0.439  34.566 235.677  1.00  0.00    -0.387 OA
ATOM     39  C17 UNK     1       0.044  35.693 236.388  1.00  0.00     0.202 C 
ENDBRANCH  10  38
BRANCH   6  40
ATOM     40  C14 UNK     1      -2.177  35.648 233.562  1.00  0.00     0.265 C 
ATOM     41  O4  UNK     1      -1.794  36.801 233.706  1.00  0.00    -0.265 OA
BRANCH  40  42
ATOM     42  O3  UNK     1      -3.472  35.224 233.521  1.00  0.00    -0.326 OA
ATOM     43  C23 UNK     1      -3.811  34.193 234.453  1.00  0.00     0.213 C 
ENDBRANCH  40  42
ENDBRANCH   6  40
BRANCH  21  44
ATOM     44  O6  UNK     1      -5.929  36.203 225.755  1.00  0.00    -0.356 OA
ATOM     45  C29 UNK     1      -6.194  37.588 225.963  1.00  0.00     0.210 C 
ENDBRANCH  21  44
TORSDOF 10
ENDMDL
MODEL 6
REMARK VINA RESULT:      -7.2      2.962     10.974
REMARK  10 active torsions:
REMARK  status: ('A' for Active; 'I' for Inactive)
REMARK    1  A    between atoms: O1_1  and  C8_19 
REMARK    2  A    between atoms: O2_2  and  C9_20 
REMARK    3  A    between atoms: O2_2  and  C19_30 
REMARK    4  A    between atoms: O3_3  and  C14_25 
REMARK    5  A    between atoms: O6_6  and  C22_33 
REMARK    6  A    between atoms: O7_7  and  C27_38 
REMARK    7  A    between atoms: O8_8  and  C28_39 
REMARK    8  A    between atoms: O9_9  and  C30_41 
REMARK    9  A    between atoms: C4_15  and  C14_25 
REMARK   10  A    between atoms: C19_30  and  C24_35 
ROOT
ATOM      1  N1  UNK     1      -1.470  38.465 229.130  1.00  0.00     0.099 N 
ATOM      2  N2  UNK     1      -4.500  38.211 226.914  1.00  0.00    -0.357 N 
ATOM      3  C1  UNK     1      -2.307  35.681 228.571  1.00  0.00     0.010 C 
ATOM      4  C2  UNK     1      -0.838  36.052 228.851  1.00  0.00     0.021 C 
ATOM      5  C3  UNK     1      -3.242  36.690 229.267  1.00  0.00     0.048 C 
ATOM      6  C4  UNK     1      -2.567  34.212 228.970  1.00  0.00     0.121 C 
ATOM      7  C5  UNK     1      -2.913  38.155 228.931  1.00  0.00     0.273 C 
ATOM      8  C6  UNK     1      -0.573  37.512 228.458  1.00  0.00     0.278 C 
ATOM      9  C7  UNK     1      -0.446  35.772 230.310  1.00  0.00     0.042 C 
ATOM     10  C8  UNK     1      -2.166  33.898 230.417  1.00  0.00     0.164 C 
ATOM     11  C9  UNK     1      -0.724  34.324 230.706  1.00  0.00     0.162 C 
ATOM     12  C10 UNK     1      -3.370  38.606 227.573  1.00  0.00     0.050 A 
ATOM     13  C11 UNK     1      -1.165  39.861 228.734  1.00  0.00     0.278 C 
ATOM     14  C12 UNK     1      -2.735  39.561 226.805  1.00  0.00    -0.019 A 
ATOM     15  C13 UNK     1      -1.464  40.200 227.252  1.00  0.00     0.072 C 
ATOM     16  C15 UNK     1      -3.492  39.734 225.615  1.00  0.00    -0.001 A 
ATOM     17  C16 UNK     1      -4.593  38.875 225.709  1.00  0.00     0.046 A 
ATOM     18  C18 UNK     1      -3.354  40.534 224.464  1.00  0.00     0.017 A 
ATOM     19  C20 UNK     1      -5.562  38.782 224.704  1.00  0.00     0.067 A 
ATOM     20  C21 UNK     1      -4.315  40.450 223.452  1.00  0.00     0.038 A 
ATOM     21  C22 UNK     1      -5.402  39.585 223.572  1.00  0.00     0.070 A 
ATOM     22  H17 UNK     1      -5.171  37.535 227.249  1.00  0.00     0.166 HD
ENDROOT
BRANCH  11  23
ATOM     23  O2  UNK     1      -0.480  34.173 232.105  1.00  0.00    -0.309 OA
BRANCH  23  24
ATOM     24  C19 UNK     1       0.657  33.506 232.439  1.00  0.00     0.294 C 
ATOM     25  O5  UNK     1       1.151  32.573 231.827  1.00  0.00    -0.259 OA
BRANCH  24  26
ATOM     26  C24 UNK     1       1.244  34.069 233.681  1.00  0.00     0.045 A 
ATOM     27  C25 UNK     1       1.734  33.215 234.670  1.00  0.00     0.057 A 
ATOM     28  C28 UNK     1       2.287  33.744 235.836  1.00  0.00     0.105 A 
ATOM     29  C30 UNK     1       2.351  35.125 236.013  1.00  0.00     0.135 A 
ATOM     30  C27 UNK     1       1.861  35.980 235.024  1.00  0.00     0.105 A 
ATOM     31  C26 UNK     1       1.308  35.451 233.858  1.00  0.00     0.057 A 
BRANCH  28  32
ATOM     32  O8  UNK     1       2.763  32.900 236.794  1.00  0.00    -0.353 OA
ATOM     33  C32 UNK     1       4.020  32.275 236.541  1.00  0.00     0.210 C 
ENDBRANCH  28  32
BRANCH  29  34
ATOM     34  O9  UNK     1       2.891  35.643 237.153  1.00  0.00    -0.351 OA
ATOM     35  C33 UNK     1       4.268  36.009 237.110  1.00  0.00     0.210 C 
ENDBRANCH  29  34
BRANCH  30  36
ATOM     36  O7  UNK     1       1.919  37.331 235.185  1.00  0.00    -0.353 OA
ATOM     37  C31 UNK     1       1.019  37.910 236.128  1.00  0.00     0.210 C 
ENDBRANCH  30  36
ENDBRANCH  24  26
ENDBRANCH  23  24
ENDBRANCH  11  23
BRANCH  10  38
ATOM     38  O1  UNK     1      -2.236  32.483 230.630  1.00  0.00    -0.387 OA
ATOM     39  C17 UNK     1      -1.423  31.786 229.701  1.00  0.00     0.202 C 
ENDBRANCH  10  38
BRANCH   6  40
ATOM     40  C14 UNK     1      -4.004  33.853 228.717  1.00  0.00     0.265 C 
ATOM     41  O4  UNK     1      -4.812  33.598 229.600  1.00  0.00    -0.265 OA
BRANCH  40  42
ATOM     42  O3  UNK     1      -4.246  33.858 227.376  1.00  0.00    -0.326 OA
ATOM     43  C23 UNK     1      -5.421  34.565 226.966  1.00  0.00     0.213 C 
ENDBRANCH  40  42
ENDBRANCH   6  40
BRANCH  21  44
ATOM     44  O6  UNK     1      -6.326  39.524 222.571  1.00  0.00    -0.356 OA
ATOM     45  C29 UNK     1      -7.421  38.630 222.756  1.00  0.00     0.210 C 
ENDBRANCH  21  44
TORSDOF 10
ENDMDL
MODEL 7
REMARK VINA RESULT:      -7.2      1.823      2.206
REMARK  10 active torsions:
REMARK  status: ('A' for Active; 'I' for Inactive)
REMARK    1  A    between atoms: O1_1  and  C8_19 
REMARK    2  A    between atoms: O2_2  and  C9_20 
REMARK    3  A    between atoms: O2_2  and  C19_30 
REMARK    4  A    between atoms: O3_3  and  C14_25 
REMARK    5  A    between atoms: O6_6  and  C22_33 
REMARK    6  A    between atoms: O7_7  and  C27_38 
REMARK    7  A    between atoms: O8_8  and  C28_39 
REMARK    8  A    between atoms: O9_9  and  C30_41 
REMARK    9  A    between atoms: C4_15  and  C14_25 
REMARK   10  A    between atoms: C19_30  and  C24_35 
ROOT
ATOM      1  N1  UNK     1       0.789  36.334 233.741  1.00  0.00     0.099 N 
ATOM      2  N2  UNK     1       1.669  32.802 234.693  1.00  0.00    -0.357 N 
ATOM      3  C1  UNK     1      -0.859  34.287 232.378  1.00  0.00     0.010 C 
ATOM      4  C2  UNK     1      -1.397  35.698 232.685  1.00  0.00     0.021 C 
ATOM      5  C3  UNK     1       0.674  34.335 232.225  1.00  0.00     0.048 C 
ATOM      6  C4  UNK     1      -1.591  33.697 231.154  1.00  0.00     0.121 C 
ATOM      7  C5  UNK     1       1.383  35.008 233.412  1.00  0.00     0.273 C 
ATOM      8  C6  UNK     1      -0.673  36.293 233.901  1.00  0.00     0.278 C 
ATOM      9  C7  UNK     1      -1.310  36.621 231.460  1.00  0.00     0.042 C 
ATOM     10  C8  UNK     1      -1.537  34.606 229.920  1.00  0.00     0.164 C 
ATOM     11  C9  UNK     1      -2.017  36.024 230.245  1.00  0.00     0.162 C 
ATOM     12  C10 UNK     1       1.492  34.156 234.645  1.00  0.00     0.050 A 
ATOM     13  C11 UNK     1       1.443  36.931 234.931  1.00  0.00     0.278 C 
ATOM     14  C12 UNK     1       1.500  34.639 235.938  1.00  0.00    -0.019 A 
ATOM     15  C13 UNK     1       1.332  36.091 236.228  1.00  0.00     0.072 C 
ATOM     16  C15 UNK     1       1.657  33.530 236.812  1.00  0.00    -0.001 A 
ATOM     17  C16 UNK     1       1.760  32.391 236.006  1.00  0.00     0.046 A 
ATOM     18  C18 UNK     1       1.722  33.377 238.212  1.00  0.00     0.017 A 
ATOM     19  C20 UNK     1       1.927  31.106 236.536  1.00  0.00     0.067 A 
ATOM     20  C21 UNK     1       1.888  32.098 238.753  1.00  0.00     0.038 A 
ATOM     21  C22 UNK     1       1.988  30.981 237.926  1.00  0.00     0.070 A 
ATOM     22  H17 UNK     1       1.725  32.187 233.894  1.00  0.00     0.166 HD
ENDROOT
BRANCH  11  23
ATOM     23  O2  UNK     1      -1.770  36.855 229.111  1.00  0.00    -0.309 OA
BRANCH  23  24
ATOM     24  C19 UNK     1      -2.788  37.681 228.750  1.00  0.00     0.294 C 
ATOM     25  O5  UNK     1      -3.981  37.438 228.843  1.00  0.00    -0.259 OA
BRANCH  24  26
ATOM     26  C24 UNK     1      -2.256  38.956 228.206  1.00  0.00     0.045 A 
ATOM     27  C25 UNK     1      -2.709  39.432 226.975  1.00  0.00     0.057 A 
ATOM     28  C28 UNK     1      -2.210  40.632 226.466  1.00  0.00     0.105 A 
ATOM     29  C30 UNK     1      -1.261  41.355 227.187  1.00  0.00     0.135 A 
ATOM     30  C27 UNK     1      -0.808  40.878 228.418  1.00  0.00     0.105 A 
ATOM     31  C26 UNK     1      -1.307  39.679 228.928  1.00  0.00     0.057 A 
BRANCH  28  32
ATOM     32  O8  UNK     1      -2.661  41.087 225.263  1.00  0.00    -0.353 OA
ATOM     33  C32 UNK     1      -4.073  41.103 225.064  1.00  0.00     0.210 C 
ENDBRANCH  28  32
BRANCH  29  34
ATOM     34  O9  UNK     1      -0.773  42.526 226.689  1.00  0.00    -0.351 OA
ATOM     35  C33 UNK     1       0.452  42.461 225.962  1.00  0.00     0.210 C 
ENDBRANCH  29  34
BRANCH  30  36
ATOM     36  O7  UNK     1       0.118  41.575 229.133  1.00  0.00    -0.353 OA
ATOM     37  C31 UNK     1       1.490  41.328 228.830  1.00  0.00     0.210 C 
ENDBRANCH  30  36
ENDBRANCH  24  26
ENDBRANCH  23  24
ENDBRANCH  11  23
BRANCH  10  38
ATOM     38  O1  UNK     1      -2.414  34.089 228.912  1.00  0.00    -0.387 OA
ATOM     39  C17 UNK     1      -3.747  34.007 229.388  1.00  0.00     0.202 C 
ENDBRANCH  10  38
BRANCH   6  40
ATOM     40  C14 UNK     1      -1.055  32.328 230.840  1.00  0.00     0.265 C 
ATOM     41  O4  UNK     1      -1.534  31.289 231.273  1.00  0.00    -0.265 OA
BRANCH  40  42
ATOM     42  O3  UNK     1       0.024  32.440 230.014  1.00  0.00    -0.326 OA
ATOM     43  C23 UNK     1       0.504  31.210 229.460  1.00  0.00     0.213 C 
ENDBRANCH  40  42
ENDBRANCH   6  40
BRANCH  21  44
ATOM     44  O6  UNK     1       2.151  29.746 238.481  1.00  0.00    -0.356 OA
ATOM     45  C29 UNK     1       3.489  29.281 238.643  1.00  0.00     0.210 C 
ENDBRANCH  21  44
TORSDOF 10
ENDMDL
MODEL 8
REMARK VINA RESULT:      -7.2      1.687      1.968
REMARK  10 active torsions:
REMARK  status: ('A' for Active; 'I' for Inactive)
REMARK    1  A    between atoms: O1_1  and  C8_19 
REMARK    2  A    between atoms: O2_2  and  C9_20 
REMARK    3  A    between atoms: O2_2  and  C19_30 
REMARK    4  A    between atoms: O3_3  and  C14_25 
REMARK    5  A    between atoms: O6_6  and  C22_33 
REMARK    6  A    between atoms: O7_7  and  C27_38 
REMARK    7  A    between atoms: O8_8  and  C28_39 
REMARK    8  A    between atoms: O9_9  and  C30_41 
REMARK    9  A    between atoms: C4_15  and  C14_25 
REMARK   10  A    between atoms: C19_30  and  C24_35 
ROOT
ATOM      1  N1  UNK     1      -1.088  36.404 234.383  1.00  0.00     0.099 N 
ATOM      2  N2  UNK     1       2.122  34.457 234.627  1.00  0.00    -0.357 N 
ATOM      3  C1  UNK     1      -0.726  34.427 232.210  1.00  0.00     0.010 C 
ATOM      4  C2  UNK     1      -2.122  34.841 232.713  1.00  0.00     0.021 C 
ATOM      5  C3  UNK     1       0.275  35.576 232.443  1.00  0.00     0.048 C 
ATOM      6  C4  UNK     1      -0.811  33.962 230.740  1.00  0.00     0.121 C 
ATOM      7  C5  UNK     1       0.282  36.090 233.893  1.00  0.00     0.273 C 
ATOM      8  C6  UNK     1      -2.046  35.306 234.174  1.00  0.00     0.278 C 
ATOM      9  C7  UNK     1      -2.764  35.903 231.808  1.00  0.00     0.042 C 
ATOM     10  C8  UNK     1      -1.466  34.995 229.815  1.00  0.00     0.164 C 
ATOM     11  C9  UNK     1      -2.826  35.448 230.352  1.00  0.00     0.162 C 
ATOM     12  C10 UNK     1       1.006  35.207 234.870  1.00  0.00     0.050 A 
ATOM     13  C11 UNK     1      -1.062  36.831 235.803  1.00  0.00     0.278 C 
ATOM     14  C12 UNK     1       0.680  35.077 236.204  1.00  0.00    -0.019 A 
ATOM     15  C13 UNK     1      -0.496  35.780 236.791  1.00  0.00     0.072 C 
ATOM     16  C15 UNK     1       1.618  34.187 236.794  1.00  0.00    -0.001 A 
ATOM     17  C16 UNK     1       2.510  33.813 235.783  1.00  0.00     0.046 A 
ATOM     18  C18 UNK     1       1.800  33.658 238.087  1.00  0.00     0.017 A 
ATOM     19  C20 UNK     1       3.577  32.936 236.007  1.00  0.00     0.067 A 
ATOM     20  C21 UNK     1       2.862  32.780 238.324  1.00  0.00     0.038 A 
ATOM     21  C22 UNK     1       3.736  32.424 237.298  1.00  0.00     0.070 A 
ATOM     22  H17 UNK     1       2.597  34.379 233.740  1.00  0.00     0.166 HD
ENDROOT
BRANCH  11  23
ATOM     23  O2  UNK     1      -3.291  36.532 229.548  1.00  0.00    -0.309 OA
BRANCH  23  24
ATOM     24  C19 UNK     1      -2.421  37.564 229.384  1.00  0.00     0.294 C 
ATOM     25  O5  UNK     1      -1.480  37.836 230.113  1.00  0.00    -0.259 OA
BRANCH  24  26
ATOM     26  C24 UNK     1      -2.765  38.347 228.170  1.00  0.00     0.045 A 
ATOM     27  C25 UNK     1      -3.635  37.814 227.220  1.00  0.00     0.057 A 
ATOM     28  C28 UNK     1      -3.959  38.552 226.081  1.00  0.00     0.105 A 
ATOM     29  C30 UNK     1      -3.414  39.821 225.893  1.00  0.00     0.135 A 
ATOM     30  C27 UNK     1      -2.542  40.354 226.844  1.00  0.00     0.105 A 
ATOM     31  C26 UNK     1      -2.218  39.617 227.983  1.00  0.00     0.057 A 
BRANCH  28  32
ATOM     32  O8  UNK     1      -4.812  38.021 225.160  1.00  0.00    -0.353 OA
ATOM     33  C32 UNK     1      -6.207  38.111 225.441  1.00  0.00     0.210 C 
ENDBRANCH  28  32
BRANCH  29  34
ATOM     34  O9  UNK     1      -3.729  40.542 224.779  1.00  0.00    -0.351 OA
ATOM     35  C33 UNK     1      -2.890  40.373 223.639  1.00  0.00     0.210 C 
ENDBRANCH  29  34
BRANCH  30  36
ATOM     36  O7  UNK     1      -2.003  41.593 226.673  1.00  0.00    -0.353 OA
ATOM     37  C31 UNK     1      -0.580  41.687 226.683  1.00  0.00     0.210 C 
ENDBRANCH  30  36
ENDBRANCH  24  26
ENDBRANCH  23  24
ENDBRANCH  11  23
BRANCH  10  38
ATOM     38  O1  UNK     1      -1.698  34.402 228.532  1.00  0.00    -0.387 OA
ATOM     39  C17 UNK     1      -2.692  33.394 228.608  1.00  0.00     0.202 C 
ENDBRANCH  10  38
BRANCH   6  40
ATOM     40  C14 UNK     1       0.553  33.576 230.239  1.00  0.00     0.265 C 
ATOM     41  O4  UNK     1       1.272  34.311 229.575  1.00  0.00    -0.265 OA
BRANCH  40  42
ATOM     42  O3  UNK     1       0.843  32.306 230.639  1.00  0.00    -0.326 OA
ATOM     43  C23 UNK     1      -0.143  31.320 230.317  1.00  0.00     0.213 C 
ENDBRANCH  40  42
ENDBRANCH   6  40
BRANCH  21  44
ATOM     44  O6  UNK     1       4.765  31.568 237.558  1.00  0.00    -0.356 OA
ATOM     45  C29 UNK     1       4.672  30.787 238.747  1.00  0.00     0.210 C 
ENDBRANCH  21  44
TORSDOF 10
ENDMDL
MODEL 9
REMARK VINA RESULT:      -7.2      1.714      2.782
REMARK  10 active torsions:
REMARK  status: ('A' for Active; 'I' for Inactive)
REMARK    1  A    between atoms: O1_1  and  C8_19 
REMARK    2  A    between atoms: O2_2  and  C9_20 
REMARK    3  A    between atoms: O2_2  and  C19_30 
REMARK    4  A    between atoms: O3_3  and  C14_25 
REMARK    5  A    between atoms: O6_6  and  C22_33 
REMARK    6  A    between atoms: O7_7  and  C27_38 
REMARK    7  A    between atoms: O8_8  and  C28_39 
REMARK    8  A    between atoms: O9_9  and  C30_41 
REMARK    9  A    between atoms: C4_15  and  C14_25 
REMARK   10  A    between atoms: C19_30  and  C24_35 
ROOT
ATOM      1  N1  UNK     1      -1.114  36.397 234.368  1.00  0.00     0.099 N 
ATOM      2  N2  UNK     1       2.025  34.336 234.591  1.00  0.00    -0.357 N 
ATOM      3  C1  UNK     1      -0.812  34.445 232.163  1.00  0.00     0.010 C 
ATOM      4  C2  UNK     1      -2.195  34.900 232.669  1.00  0.00     0.021 C 
ATOM      5  C3  UNK     1       0.228  35.554 232.420  1.00  0.00     0.048 C 
ATOM      6  C4  UNK     1      -0.907  34.008 230.685  1.00  0.00     0.121 C 
ATOM      7  C5  UNK     1       0.247  36.044 233.878  1.00  0.00     0.273 C 
ATOM      8  C6  UNK     1      -2.108  35.337 234.138  1.00  0.00     0.278 C 
ATOM      9  C7  UNK     1      -2.796  35.999 231.779  1.00  0.00     0.042 C 
ATOM     10  C8  UNK     1      -1.521  35.079 229.776  1.00  0.00     0.164 C 
ATOM     11  C9  UNK     1      -2.867  35.570 230.315  1.00  0.00     0.162 C 
ATOM     12  C10 UNK     1       0.935  35.120 234.842  1.00  0.00     0.050 A 
ATOM     13  C11 UNK     1      -1.079  36.799 235.796  1.00  0.00     0.278 C 
ATOM     14  C12 UNK     1       0.599  34.979 236.173  1.00  0.00    -0.019 A 
ATOM     15  C13 UNK     1      -0.554  35.713 236.767  1.00  0.00     0.072 C 
ATOM     16  C15 UNK     1       1.503  34.046 236.751  1.00  0.00    -0.001 A 
ATOM     17  C16 UNK     1       2.386  33.658 235.737  1.00  0.00     0.046 A 
ATOM     18  C18 UNK     1       1.661  33.490 238.036  1.00  0.00     0.017 A 
ATOM     19  C20 UNK     1       3.421  32.741 235.951  1.00  0.00     0.067 A 
ATOM     20  C21 UNK     1       2.691  32.571 238.262  1.00  0.00     0.038 A 
ATOM     21  C22 UNK     1       3.557  32.203 237.233  1.00  0.00     0.070 A 
ATOM     22  H17 UNK     1       2.501  34.255 233.704  1.00  0.00     0.166 HD
ENDROOT
BRANCH  11  23
ATOM     23  O2  UNK     1      -3.291  36.683 229.528  1.00  0.00    -0.309 OA
BRANCH  23  24
ATOM     24  C19 UNK     1      -2.364  37.659 229.335  1.00  0.00     0.294 C 
ATOM     25  O5  UNK     1      -1.385  37.871 230.033  1.00  0.00    -0.259 OA
BRANCH  24  26
ATOM     26  C24 UNK     1      -2.698  38.465 228.133  1.00  0.00     0.045 A 
ATOM     27  C25 UNK     1      -2.045  39.676 227.902  1.00  0.00     0.057 A 
ATOM     28  C28 UNK     1      -2.359  40.431 226.772  1.00  0.00     0.105 A 
ATOM     29  C30 UNK     1      -3.323  39.976 225.874  1.00  0.00     0.135 A 
ATOM     30  C27 UNK     1      -3.976  38.765 226.105  1.00  0.00     0.105 A 
ATOM     31  C26 UNK     1      -3.663  38.009 227.235  1.00  0.00     0.057 A 
BRANCH  28  32
ATOM     32  O8  UNK     1      -1.714  41.612 226.556  1.00  0.00    -0.353 OA
ATOM     33  C32 UNK     1      -0.342  41.681 226.942  1.00  0.00     0.210 C 
ENDBRANCH  28  32
BRANCH  29  34
ATOM     34  O9  UNK     1      -3.630  40.715 224.770  1.00  0.00    -0.351 OA
ATOM     35  C33 UNK     1      -2.882  40.450 223.585  1.00  0.00     0.210 C 
ENDBRANCH  29  34
BRANCH  30  36
ATOM     36  O7  UNK     1      -4.919  38.308 225.235  1.00  0.00    -0.353 OA
ATOM     37  C31 UNK     1      -6.004  37.565 225.787  1.00  0.00     0.210 C 
ENDBRANCH  30  36
ENDBRANCH  24  26
ENDBRANCH  23  24
ENDBRANCH  11  23
BRANCH  10  38
ATOM     38  O1  UNK     1      -1.769  34.515 228.482  1.00  0.00    -0.387 OA
ATOM     39  C17 UNK     1      -2.730  33.476 228.554  1.00  0.00     0.202 C 
ENDBRANCH  10  38
BRANCH   6  40
ATOM     40  C14 UNK     1       0.445  33.583 230.183  1.00  0.00     0.265 C 
ATOM     41  O4  UNK     1       1.192  34.304 229.535  1.00  0.00    -0.265 OA
BRANCH  40  42
ATOM     42  O3  UNK     1       0.688  32.297 230.561  1.00  0.00    -0.326 OA
ATOM     43  C23 UNK     1       0.210  31.291 229.662  1.00  0.00     0.213 C 
ENDBRANCH  40  42
ENDBRANCH   6  40
BRANCH  21  44
ATOM     44  O6  UNK     1       4.553  31.307 237.482  1.00  0.00    -0.356 OA
ATOM     45  C29 UNK     1       5.454  31.618 238.542  1.00  0.00     0.210 C 
ENDBRANCH  21  44
TORSDOF 10
ENDMDL
