MODEL 1
REMARK VINA RESULT:      -6.3      0.000      0.000
REMARK  5 active torsions:
REMARK  status: ('A' for Active; 'I' for Inactive)
REMARK    1  A    between atoms: O1_1  and  C14_19 
REMARK    2  A    between atoms: N1_2  and  C1_6 
REMARK    3  A    between atoms: N1_2  and  C5_10 
REMARK    4  A    between atoms: N1_2  and  C6_11 
REMARK    5  A    between atoms: C1_6  and  C2_7 
ROOT
ATOM      1  N1  UNK     1      -1.288  40.158 227.410  1.00  0.00    -0.340 N 
ENDROOT
BRANCH   1   2
ATOM      2  C1  UNK     1      -2.353  41.001 226.945  1.00  0.00     0.205 C 
BRANCH   2   3
ATOM      3  C2  UNK     1      -2.651  40.616 225.533  1.00  0.00     0.091 A 
ATOM      4  N2  UNK     1      -3.607  39.692 225.241  1.00  0.00    -0.377 N 
ATOM      5  C3  UNK     1      -3.722  39.535 223.823  1.00  0.00     0.140 A 
ATOM      6  H7  UNK     1      -4.185  39.198 225.910  1.00  0.00     0.160 HD
ATOM      7  C4  UNK     1      -2.631  40.494 223.326  1.00  0.00     0.140 A 
ATOM      8  N3  UNK     1      -2.027  41.162 224.520  1.00  0.00    -0.377 N 
ATOM      9  H3  UNK     1      -1.299  41.876 224.540  1.00  0.00     0.160 HD
ENDBRANCH   2   3
ENDBRANCH   1   2
BRANCH   1  10
ATOM     10  C5  UNK     1      -1.680  38.910 227.994  1.00  0.00     0.035 A 
ATOM     11  C7  UNK     1      -0.713  37.955 228.258  1.00  0.00     0.030 A 
ATOM     12  C12 UNK     1      -1.095  36.739 228.826  1.00  0.00     0.009 A 
ATOM     13  C11 UNK     1      -2.437  36.498 229.121  1.00  0.00    -0.062 A 
ATOM     14  C13 UNK     1      -3.398  37.472 228.848  1.00  0.00     0.009 A 
ATOM     15  C17 UNK     1      -2.845  35.198 229.728  1.00  0.00     0.048 C 
ATOM     16  C8  UNK     1      -3.016  38.688 228.279  1.00  0.00     0.030 A 
ENDBRANCH   1  10
BRANCH   1  17
ATOM     17  C6  UNK     1       0.038  40.697 227.484  1.00  0.00     0.037 A 
ATOM     18  C9  UNK     1       0.436  41.352 228.637  1.00  0.00     0.066 A 
ATOM     19  C14 UNK     1       1.727  41.875 228.709  1.00  0.00     0.067 A 
ATOM     20  C16 UNK     1       2.598  41.735 227.628  1.00  0.00     0.036 A 
ATOM     21  C15 UNK     1       2.178  41.072 226.476  1.00  0.00     0.005 A 
ATOM     22  C10 UNK     1       0.887  40.548 226.403  1.00  0.00     0.030 A 
BRANCH  19  23
ATOM     23  O1  UNK     1       2.136  42.522 229.834  1.00  0.00    -0.361 OA
ATOM     24  H19 UNK     1       2.580  41.885 230.420  1.00  0.00     0.217 HD
ENDBRANCH  19  23
ENDBRANCH   1  17
TORSDOF 5
ENDMDL
MODEL 2
REMARK VINA RESULT:      -6.3      8.136     10.685
REMARK  5 active torsions:
REMARK  status: ('A' for Active; 'I' for Inactive)
REMARK    1  A    between atoms: O1_1  and  C14_19 
REMARK    2  A    between atoms: N1_2  and  C1_6 
REMARK    3  A    between atoms: N1_2  and  C5_10 
REMARK    4  A    between atoms: N1_2  and  C6_11 
REMARK    5  A    between atoms: C1_6  and  C2_7 
ROOT
ATOM      1  N1  UNK     1       1.174  34.162 235.330  1.00  0.00    -0.340 N 
ENDROOT
BRANCH   1   2
ATOM      2  C1  UNK     1       0.995  32.946 236.073  1.00  0.00     0.205 C 
BRANCH   2   3
ATOM      3  C2  UNK     1      -0.334  33.022 236.750  1.00  0.00     0.091 A 
ATOM      4  N2  UNK     1      -1.492  32.921 236.043  1.00  0.00    -0.377 N 
ATOM      5  C3  UNK     1      -2.616  32.983 236.928  1.00  0.00     0.140 A 
ATOM      6  H7  UNK     1      -1.573  32.790 235.042  1.00  0.00     0.160 HD
ATOM      7  C4  UNK     1      -1.920  33.187 238.282  1.00  0.00     0.140 A 
ATOM      8  N3  UNK     1      -0.443  33.164 238.048  1.00  0.00    -0.377 N 
ATOM      9  H3  UNK     1       0.305  33.240 238.737  1.00  0.00     0.160 HD
ENDBRANCH   2   3
ENDBRANCH   1   2
BRANCH   1  10
ATOM     10  C5  UNK     1       1.106  34.046 233.903  1.00  0.00     0.035 A 
ATOM     11  C7  UNK     1       1.208  35.188 233.127  1.00  0.00     0.030 A 
ATOM     12  C12 UNK     1       1.141  35.075 231.739  1.00  0.00     0.009 A 
ATOM     13  C11 UNK     1       0.975  33.822 231.148  1.00  0.00    -0.062 A 
ATOM     14  C13 UNK     1       0.874  32.682 231.946  1.00  0.00     0.009 A 
ATOM     15  C17 UNK     1       0.904  33.702 229.663  1.00  0.00     0.048 C 
ATOM     16  C8  UNK     1       0.940  32.796 233.335  1.00  0.00     0.030 A 
ENDBRANCH   1  10
BRANCH   1  17
ATOM     17  C6  UNK     1       1.634  35.332 236.019  1.00  0.00     0.037 A 
ATOM     18  C9  UNK     1       2.992  35.508 236.214  1.00  0.00     0.066 A 
ATOM     19  C14 UNK     1       3.441  36.647 236.884  1.00  0.00     0.067 A 
ATOM     20  C16 UNK     1       2.523  37.590 237.346  1.00  0.00     0.036 A 
ATOM     21  C15 UNK     1       1.158  37.395 237.139  1.00  0.00     0.005 A 
ATOM     22  C10 UNK     1       0.709  36.256 236.470  1.00  0.00     0.030 A 
BRANCH  19  23
ATOM     23  O1  UNK     1       4.772  36.837 237.085  1.00  0.00    -0.361 OA
ATOM     24  H19 UNK     1       5.005  36.520 237.975  1.00  0.00     0.217 HD
ENDBRANCH  19  23
ENDBRANCH   1  17
TORSDOF 5
ENDMDL
MODEL 3
REMARK VINA RESULT:      -6.3     10.114     12.369
REMARK  5 active torsions:
REMARK  status: ('A' for Active; 'I' for Inactive)
REMARK    1  A    between atoms: O1_1  and  C14_19 
REMARK    2  A    between atoms: N1_2  and  C1_6 
REMARK    3  A    between atoms: N1_2  and  C5_10 
REMARK    4  A    between atoms: N1_2  and  C6_11 
REMARK    5  A    between atoms: C1_6  and  C2_7 
ROOT
ATOM      1  N1  UNK     1       1.821  34.836 236.146  1.00  0.00    -0.340 N 
ENDROOT
BRANCH   1   2
ATOM      2  C1  UNK     1       2.495  36.047 235.772  1.00  0.00     0.205 C 
BRANCH   2   3
ATOM      3  C2  UNK     1       3.264  36.523 236.960  1.00  0.00     0.091 A 
ATOM      4  N2  UNK     1       2.645  36.775 238.146  1.00  0.00    -0.377 N 
ATOM      5  C3  UNK     1       3.607  37.177 239.127  1.00  0.00     0.140 A 
ATOM      6  H7  UNK     1       1.656  36.671 238.338  1.00  0.00     0.160 HD
ATOM      7  C4  UNK     1       4.901  37.166 238.300  1.00  0.00     0.140 A 
ATOM      8  N3  UNK     1       4.562  36.696 236.921  1.00  0.00    -0.377 N 
ATOM      9  H3  UNK     1       5.193  36.545 236.134  1.00  0.00     0.160 HD
ENDBRANCH   2   3
ENDBRANCH   1   2
BRANCH   1  10
ATOM     10  C5  UNK     1       2.605  33.637 236.097  1.00  0.00     0.035 A 
ATOM     11  C7  UNK     1       2.464  32.781 235.018  1.00  0.00     0.030 A 
ATOM     12  C12 UNK     1       3.227  31.614 234.972  1.00  0.00     0.009 A 
ATOM     13  C11 UNK     1       4.118  31.321 236.004  1.00  0.00    -0.062 A 
ATOM     14  C13 UNK     1       4.247  32.196 237.084  1.00  0.00     0.009 A 
ATOM     15  C17 UNK     1       4.933  30.073 235.953  1.00  0.00     0.048 C 
ATOM     16  C8  UNK     1       3.484  33.362 237.130  1.00  0.00     0.030 A 
ENDBRANCH   1  10
BRANCH   1  17
ATOM     17  C6  UNK     1       0.397  34.857 236.307  1.00  0.00     0.037 A 
ATOM     18  C9  UNK     1      -0.171  34.175 237.368  1.00  0.00     0.066 A 
ATOM     19  C14 UNK     1      -1.557  34.196 237.525  1.00  0.00     0.067 A 
ATOM     20  C16 UNK     1      -2.351  34.899 236.618  1.00  0.00     0.036 A 
ATOM     21  C15 UNK     1      -1.759  35.580 235.555  1.00  0.00     0.005 A 
ATOM     22  C10 UNK     1      -0.373  35.559 235.398  1.00  0.00     0.030 A 
BRANCH  19  23
ATOM     23  O1  UNK     1      -2.134  33.532 238.563  1.00  0.00    -0.361 OA
ATOM     24  H19 UNK     1      -1.506  33.500 239.305  1.00  0.00     0.217 HD
ENDBRANCH  19  23
ENDBRANCH   1  17
TORSDOF 5
ENDMDL
MODEL 4
REMARK VINA RESULT:      -6.2      7.978     10.586
REMARK  5 active torsions:
REMARK  status: ('A' for Active; 'I' for Inactive)
REMARK    1  A    between atoms: O1_1  and  C14_19 
REMARK    2  A    between atoms: N1_2  and  C1_6 
REMARK    3  A    between atoms: N1_2  and  C5_10 
REMARK    4  A    between atoms: N1_2  and  C6_11 
REMARK    5  A    between atoms: C1_6  and  C2_7 
ROOT
ATOM      1  N1  UNK     1       0.703  34.226 235.205  1.00  0.00    -0.340 N 
ENDROOT
BRANCH   1   2
ATOM      2  C1  UNK     1       0.710  32.989 235.933  1.00  0.00     0.205 C 
BRANCH   2   3
ATOM      3  C2  UNK     1      -0.584  32.892 236.673  1.00  0.00     0.091 A 
ATOM      4  N2  UNK     1      -0.643  33.089 238.018  1.00  0.00    -0.377 N 
ATOM      5  C3  UNK     1      -1.997  32.980 238.472  1.00  0.00     0.140 A 
ATOM      6  H7  UNK     1       0.137  33.312 238.625  1.00  0.00     0.160 HD
ATOM      7  C4  UNK     1      -2.724  32.635 237.164  1.00  0.00     0.140 A 
ATOM      8  N3  UNK     1      -1.713  32.636 236.062  1.00  0.00    -0.377 N 
ATOM      9  H3  UNK     1      -1.868  32.477 235.066  1.00  0.00     0.160 HD
ENDBRANCH   2   3
ENDBRANCH   1   2
BRANCH   1  10
ATOM     10  C5  UNK     1       0.799  34.121 233.779  1.00  0.00     0.035 A 
ATOM     11  C7  UNK     1       1.185  35.229 233.044  1.00  0.00     0.030 A 
ATOM     12  C12 UNK     1       1.278  35.125 231.656  1.00  0.00     0.009 A 
ATOM     13  C11 UNK     1       0.984  33.916 231.025  1.00  0.00    -0.062 A 
ATOM     14  C13 UNK     1       0.597  32.810 231.782  1.00  0.00     0.009 A 
ATOM     15  C17 UNK     1       1.084  33.806 229.541  1.00  0.00     0.048 C 
ATOM     16  C8  UNK     1       0.504  32.914 233.170  1.00  0.00     0.030 A 
ENDBRANCH   1  10
BRANCH   1  17
ATOM     17  C6  UNK     1       0.840  35.456 235.929  1.00  0.00     0.037 A 
ATOM     18  C9  UNK     1      -0.149  36.418 235.815  1.00  0.00     0.066 A 
ATOM     19  C14 UNK     1      -0.017  37.614 236.520  1.00  0.00     0.067 A 
ATOM     20  C16 UNK     1       1.101  37.828 237.327  1.00  0.00     0.036 A 
ATOM     21  C15 UNK     1       2.086  36.846 237.429  1.00  0.00     0.005 A 
ATOM     22  C10 UNK     1       1.954  35.650 236.724  1.00  0.00     0.030 A 
BRANCH  19  23
ATOM     23  O1  UNK     1      -0.978  38.572 236.421  1.00  0.00    -0.361 OA
ATOM     24  H19 UNK     1      -1.262  38.827 237.315  1.00  0.00     0.217 HD
ENDBRANCH  19  23
ENDBRANCH   1  17
TORSDOF 5
ENDMDL
MODEL 5
REMARK VINA RESULT:      -6.1      9.565     11.771
REMARK  5 active torsions:
REMARK  status: ('A' for Active; 'I' for Inactive)
REMARK    1  A    between atoms: O1_1  and  C14_19 
REMARK    2  A    between atoms: N1_2  and  C1_6 
REMARK    3  A    between atoms: N1_2  and  C5_10 
REMARK    4  A    between atoms: N1_2  and  C6_11 
REMARK    5  A    between atoms: C1_6  and  C2_7 
ROOT
ATOM      1  N1  UNK     1       2.236  36.055 236.478  1.00  0.00    -0.340 N 
ENDROOT
BRANCH   1   2
ATOM      2  C1  UNK     1       2.801  35.673 235.215  1.00  0.00     0.205 C 
BRANCH   2   3
ATOM      3  C2  UNK     1       2.194  34.364 234.826  1.00  0.00     0.091 A 
ATOM      4  N2  UNK     1       1.289  34.280 233.813  1.00  0.00    -0.377 N 
ATOM      5  C3  UNK     1       0.895  32.918 233.617  1.00  0.00     0.140 A 
ATOM      6  H7  UNK     1       0.951  35.049 233.247  1.00  0.00     0.160 HD
ATOM      7  C4  UNK     1       1.692  32.213 234.725  1.00  0.00     0.140 A 
ATOM      8  N3  UNK     1       2.521  33.245 235.422  1.00  0.00    -0.377 N 
ATOM      9  H3  UNK     1       3.187  33.108 236.182  1.00  0.00     0.160 HD
ENDBRANCH   2   3
ENDBRANCH   1   2
BRANCH   1  10
ATOM     10  C5  UNK     1       3.096  35.935 237.617  1.00  0.00     0.035 A 
ATOM     11  C7  UNK     1       4.016  36.937 237.878  1.00  0.00     0.030 A 
ATOM     12  C12 UNK     1       4.853  36.818 238.987  1.00  0.00     0.009 A 
ATOM     13  C11 UNK     1       4.760  35.701 239.817  1.00  0.00    -0.062 A 
ATOM     14  C13 UNK     1       3.827  34.701 239.538  1.00  0.00     0.009 A 
ATOM     15  C17 UNK     1       5.656  35.575 241.003  1.00  0.00     0.048 C 
ATOM     16  C8  UNK     1       2.989  34.819 238.429  1.00  0.00     0.030 A 
ENDBRANCH   1  10
BRANCH   1  17
ATOM     17  C6  UNK     1       0.824  36.295 236.560  1.00  0.00     0.037 A 
ATOM     18  C9  UNK     1       0.349  37.582 236.385  1.00  0.00     0.066 A 
ATOM     19  C14 UNK     1      -1.024  37.816 236.464  1.00  0.00     0.067 A 
ATOM     20  C16 UNK     1      -1.898  36.758 236.716  1.00  0.00     0.036 A 
ATOM     21  C15 UNK     1      -1.399  35.467 236.889  1.00  0.00     0.005 A 
ATOM     22  C10 UNK     1      -0.026  35.234 236.810  1.00  0.00     0.030 A 
BRANCH  19  23
ATOM     23  O1  UNK     1      -1.511  39.075 236.295  1.00  0.00    -0.361 OA
ATOM     24  H19 UNK     1      -2.351  39.155 236.778  1.00  0.00     0.217 HD
ENDBRANCH  19  23
ENDBRANCH   1  17
TORSDOF 5
ENDMDL
MODEL 6
REMARK VINA RESULT:      -6.1      8.151     10.946
REMARK  5 active torsions:
REMARK  status: ('A' for Active; 'I' for Inactive)
REMARK    1  A    between atoms: O1_1  and  C14_19 
REMARK    2  A    between atoms: N1_2  and  C1_6 
REMARK    3  A    between atoms: N1_2  and  C5_10 
REMARK    4  A    between atoms: N1_2  and  C6_11 
REMARK    5  A    between atoms: C1_6  and  C2_7 
ROOT
ATOM      1  N1  UNK     1       1.683  34.639 234.950  1.00  0.00    -0.340 N 
ENDROOT
BRANCH   1   2
ATOM      2  C1  UNK     1       2.837  34.028 235.547  1.00  0.00     0.205 C 
BRANCH   2   3
ATOM      3  C2  UNK     1       2.406  33.416 236.840  1.00  0.00     0.091 A 
ATOM      4  N2  UNK     1       1.475  32.423 236.874  1.00  0.00    -0.377 N 
ATOM      5  C3  UNK     1       1.272  31.986 238.223  1.00  0.00     0.140 A 
ATOM      6  H7  UNK     1       1.006  32.016 236.075  1.00  0.00     0.160 HD
ATOM      7  C4  UNK     1       2.211  32.930 238.988  1.00  0.00     0.140 A 
ATOM      8  N3  UNK     1       2.916  33.789 237.987  1.00  0.00    -0.377 N 
ATOM      9  H3  UNK     1       3.629  34.498 238.157  1.00  0.00     0.160 HD
ENDBRANCH   2   3
ENDBRANCH   1   2
BRANCH   1  10
ATOM     10  C5  UNK     1       1.382  34.240 233.607  1.00  0.00     0.035 A 
ATOM     11  C7  UNK     1       1.383  35.193 232.602  1.00  0.00     0.030 A 
ATOM     12  C12 UNK     1       1.089  34.804 231.296  1.00  0.00     0.009 A 
ATOM     13  C11 UNK     1       0.798  33.469 231.013  1.00  0.00    -0.062 A 
ATOM     14  C13 UNK     1       0.802  32.523 232.038  1.00  0.00     0.009 A 
ATOM     15  C17 UNK     1       0.484  33.054 229.616  1.00  0.00     0.048 C 
ATOM     16  C8  UNK     1       1.096  32.912 233.345  1.00  0.00     0.030 A 
ENDBRANCH   1  10
BRANCH   1  17
ATOM     17  C6  UNK     1       1.066  35.749 235.614  1.00  0.00     0.037 A 
ATOM     18  C9  UNK     1      -0.282  35.686 235.919  1.00  0.00     0.066 A 
ATOM     19  C14 UNK     1      -0.884  36.766 236.567  1.00  0.00     0.067 A 
ATOM     20  C16 UNK     1      -0.126  37.889 236.899  1.00  0.00     0.036 A 
ATOM     21  C15 UNK     1       1.232  37.933 236.584  1.00  0.00     0.005 A 
ATOM     22  C10 UNK     1       1.833  36.854 235.936  1.00  0.00     0.030 A 
BRANCH  19  23
ATOM     23  O1  UNK     1      -2.208  36.722 236.875  1.00  0.00    -0.361 OA
ATOM     24  H19 UNK     1      -2.706  37.200 236.190  1.00  0.00     0.217 HD
ENDBRANCH  19  23
ENDBRANCH   1  17
TORSDOF 5
ENDMDL
MODEL 7
REMARK VINA RESULT:      -6.0      7.939     10.706
REMARK  5 active torsions:
REMARK  status: ('A' for Active; 'I' for Inactive)
REMARK    1  A    between atoms: O1_1  and  C14_19 
REMARK    2  A    between atoms: N1_2  and  C1_6 
REMARK    3  A    between atoms: N1_2  and  C5_10 
REMARK    4  A    between atoms: N1_2  and  C6_11 
REMARK    5  A    between atoms: C1_6  and  C2_7 
ROOT
ATOM      1  N1  UNK     1       1.225  35.240 234.765  1.00  0.00    -0.340 N 
ENDROOT
BRANCH   1   2
ATOM      2  C1  UNK     1       2.552  35.623 235.155  1.00  0.00     0.205 C 
BRANCH   2   3
ATOM      3  C2  UNK     1       2.931  34.799 236.342  1.00  0.00     0.091 A 
ATOM      4  N2  UNK     1       2.772  35.272 237.608  1.00  0.00    -0.377 N 
ATOM      5  C3  UNK     1       3.170  34.278 238.558  1.00  0.00     0.140 A 
ATOM      6  H7  UNK     1       2.400  36.178 237.866  1.00  0.00     0.160 HD
ATOM      7  C4  UNK     1       3.639  33.148 237.630  1.00  0.00     0.140 A 
ATOM      8  N3  UNK     1       3.408  33.586 236.218  1.00  0.00    -0.377 N 
ATOM      9  H3  UNK     1       3.580  33.062 235.361  1.00  0.00     0.160 HD
ENDBRANCH   2   3
ENDBRANCH   1   2
BRANCH   1  10
ATOM     10  C5  UNK     1       1.107  34.560 233.509  1.00  0.00     0.035 A 
ATOM     11  C7  UNK     1       0.940  33.186 233.497  1.00  0.00     0.030 A 
ATOM     12  C12 UNK     1       0.826  32.525 232.274  1.00  0.00     0.009 A 
ATOM     13  C11 UNK     1       0.882  33.248 231.082  1.00  0.00    -0.062 A 
ATOM     14  C13 UNK     1       1.051  34.632 231.113  1.00  0.00     0.009 A 
ATOM     15  C17 UNK     1       0.760  32.540 229.775  1.00  0.00     0.048 C 
ATOM     16  C8  UNK     1       1.165  35.293 232.337  1.00  0.00     0.030 A 
ENDBRANCH   1  10
BRANCH   1  17
ATOM     17  C6  UNK     1       0.110  35.753 235.507  1.00  0.00     0.037 A 
ATOM     18  C9  UNK     1      -0.081  37.122 235.573  1.00  0.00     0.066 A 
ATOM     19  C14 UNK     1      -1.166  37.622 236.294  1.00  0.00     0.067 A 
ATOM     20  C16 UNK     1      -2.040  36.744 236.935  1.00  0.00     0.036 A 
ATOM     21  C15 UNK     1      -1.831  35.368 236.856  1.00  0.00     0.005 A 
ATOM     22  C10 UNK     1      -0.746  34.868 236.135  1.00  0.00     0.030 A 
BRANCH  19  23
ATOM     23  O1  UNK     1      -1.370  38.965 236.371  1.00  0.00    -0.361 OA
ATOM     24  H19 UNK     1      -1.392  39.332 235.471  1.00  0.00     0.217 HD
ENDBRANCH  19  23
ENDBRANCH   1  17
TORSDOF 5
ENDMDL
MODEL 8
REMARK VINA RESULT:      -6.0      8.271     11.003
REMARK  5 active torsions:
REMARK  status: ('A' for Active; 'I' for Inactive)
REMARK    1  A    between atoms: O1_1  and  C14_19 
REMARK    2  A    between atoms: N1_2  and  C1_6 
REMARK    3  A    between atoms: N1_2  and  C5_10 
REMARK    4  A    between atoms: N1_2  and  C6_11 
REMARK    5  A    between atoms: C1_6  and  C2_7 
ROOT
ATOM      1  N1  UNK     1       0.544  34.487 235.230  1.00  0.00    -0.340 N 
ENDROOT
BRANCH   1   2
ATOM      2  C1  UNK     1      -0.121  33.450 235.968  1.00  0.00     0.205 C 
BRANCH   2   3
ATOM      3  C2  UNK     1       0.869  32.869 236.923  1.00  0.00     0.091 A 
ATOM      4  N2  UNK     1       0.799  33.131 238.257  1.00  0.00    -0.377 N 
ATOM      5  C3  UNK     1       1.832  32.425 238.952  1.00  0.00     0.140 A 
ATOM      6  H7  UNK     1       0.109  33.712 238.717  1.00  0.00     0.160 HD
ATOM      7  C4  UNK     1       2.558  31.734 237.787  1.00  0.00     0.140 A 
ATOM      8  N3  UNK     1       1.826  32.068 236.526  1.00  0.00    -0.377 N 
ATOM      9  H3  UNK     1       2.026  31.748 235.579  1.00  0.00     0.160 HD
ENDBRANCH   2   3
ENDBRANCH   1   2
BRANCH   1  10
ATOM     10  C5  UNK     1       0.678  34.272 233.820  1.00  0.00     0.035 A 
ATOM     11  C7  UNK     1       0.557  32.987 233.318  1.00  0.00     0.030 A 
ATOM     12  C12 UNK     1       0.688  32.779 231.945  1.00  0.00     0.009 A 
ATOM     13  C11 UNK     1       0.940  33.856 231.096  1.00  0.00    -0.062 A 
ATOM     14  C13 UNK     1       1.060  35.144 231.620  1.00  0.00     0.009 A 
ATOM     15  C17 UNK     1       1.080  33.632 229.628  1.00  0.00     0.048 C 
ATOM     16  C8  UNK     1       0.928  35.353 232.993  1.00  0.00     0.030 A 
ENDBRANCH   1  10
BRANCH   1  17
ATOM     17  C6  UNK     1       1.224  35.523 235.952  1.00  0.00     0.037 A 
ATOM     18  C9  UNK     1       2.607  35.527 235.980  1.00  0.00     0.066 A 
ATOM     19  C14 UNK     1       3.269  36.535 236.681  1.00  0.00     0.067 A 
ATOM     20  C16 UNK     1       2.537  37.521 237.342  1.00  0.00     0.036 A 
ATOM     21  C15 UNK     1       1.143  37.500 237.301  1.00  0.00     0.005 A 
ATOM     22  C10 UNK     1       0.481  36.492 236.600  1.00  0.00     0.030 A 
BRANCH  19  23
ATOM     23  O1  UNK     1       4.629  36.555 236.720  1.00  0.00    -0.361 OA
ATOM     24  H19 UNK     1       4.964  36.881 235.867  1.00  0.00     0.217 HD
ENDBRANCH  19  23
ENDBRANCH   1  17
TORSDOF 5
ENDMDL
MODEL 9
REMARK VINA RESULT:      -5.9      7.980     11.016
REMARK  5 active torsions:
REMARK  status: ('A' for Active; 'I' for Inactive)
REMARK    1  A    between atoms: O1_1  and  C14_19 
REMARK    2  A    between atoms: N1_2  and  C1_6 
REMARK    3  A    between atoms: N1_2  and  C5_10 
REMARK    4  A    between atoms: N1_2  and  C6_11 
REMARK    5  A    between atoms: C1_6  and  C2_7 
ROOT
ATOM      1  N1  UNK     1      -1.655  35.575 235.724  1.00  0.00    -0.340 N 
ENDROOT
BRANCH   1   2
ATOM      2  C1  UNK     1      -2.570  35.183 236.759  1.00  0.00     0.205 C 
BRANCH   2   3
ATOM      3  C2  UNK     1      -2.208  33.797 237.183  1.00  0.00     0.091 A 
ATOM      4  N2  UNK     1      -1.546  33.568 238.350  1.00  0.00    -0.377 N 
ATOM      5  C3  UNK     1      -1.357  32.162 238.540  1.00  0.00     0.140 A 
ATOM      6  H7  UNK     1      -1.248  34.270 239.016  1.00  0.00     0.160 HD
ATOM      7  C4  UNK     1      -1.981  31.599 237.254  1.00  0.00     0.140 A 
ATOM      8  N3  UNK     1      -2.528  32.748 236.468  1.00  0.00    -0.377 N 
ATOM      9  H3  UNK     1      -3.033  32.721 235.582  1.00  0.00     0.160 HD
ENDBRANCH   2   3
ENDBRANCH   1   2
BRANCH   1  10
ATOM     10  C5  UNK     1      -0.377  36.054 236.160  1.00  0.00     0.035 A 
ATOM     11  C7  UNK     1       0.742  35.260 235.973  1.00  0.00     0.030 A 
ATOM     12  C12 UNK     1       1.985  35.727 236.398  1.00  0.00     0.009 A 
ATOM     13  C11 UNK     1       2.091  36.980 237.003  1.00  0.00    -0.062 A 
ATOM     14  C13 UNK     1       0.952  37.766 237.183  1.00  0.00     0.009 A 
ATOM     15  C17 UNK     1       3.421  37.479 237.457  1.00  0.00     0.048 C 
ATOM     16  C8  UNK     1      -0.291  37.299 236.758  1.00  0.00     0.030 A 
ENDBRANCH   1  10
BRANCH   1  17
ATOM     17  C6  UNK     1      -2.140  35.690 234.379  1.00  0.00     0.037 A 
ATOM     18  C9  UNK     1      -3.275  34.989 234.011  1.00  0.00     0.066 A 
ATOM     19  C14 UNK     1      -3.747  35.102 232.703  1.00  0.00     0.067 A 
ATOM     20  C16 UNK     1      -3.076  35.913 231.787  1.00  0.00     0.036 A 
ATOM     21  C15 UNK     1      -1.934  36.611 232.178  1.00  0.00     0.005 A 
ATOM     22  C10 UNK     1      -1.462  36.498 233.486  1.00  0.00     0.030 A 
BRANCH  19  23
ATOM     23  O1  UNK     1      -4.861  34.421 232.321  1.00  0.00    -0.361 OA
ATOM     24  H19 UNK     1      -5.071  33.755 232.999  1.00  0.00     0.217 HD
ENDBRANCH  19  23
ENDBRANCH   1  17
TORSDOF 5
ENDMDL
