MODEL 1
REMARK VINA RESULT:      -7.3      0.000      0.000
REMARK  1 active torsions:
REMARK  status: ('A' for Active; 'I' for Inactive)
REMARK    1  A    between atoms: O2_2  and  C18_20 
ROOT
ATOM      1  O1  UNK     1       5.680  30.929 237.597  1.00  0.00    -0.297 OA
ATOM      2  C1  UNK     1       3.306  32.686 235.769  1.00  0.00     0.006 C 
ATOM      3  C2  UNK     1       3.706  32.297 237.208  1.00  0.00     0.021 C 
ATOM      4  C3  UNK     1       2.113  33.640 235.766  1.00  0.00    -0.000 C 
ATOM      5  C4  UNK     1       2.539  34.955 236.493  1.00  0.00     0.024 C 
ATOM      6  C5  UNK     1       4.198  33.555 237.913  1.00  0.00     0.018 C 
ATOM      7  C6  UNK     1       3.223  31.355 235.031  1.00  0.00     0.013 C 
ATOM      8  C7  UNK     1       3.124  34.660 237.902  1.00  0.00     0.011 C 
ATOM      9  C8  UNK     1       1.631  33.987 234.358  1.00  0.00     0.010 C 
ATOM     10  C9  UNK     1       4.753  31.251 236.866  1.00  0.00     0.135 C 
ATOM     11  C10 UNK     1       4.487  30.625 235.507  1.00  0.00     0.079 C 
ATOM     12  C11 UNK     1       2.627  31.580 238.040  1.00  0.00     0.024 C 
ATOM     13  C12 UNK     1       1.419  35.991 236.461  1.00  0.00    -0.047 A 
ATOM     14  C13 UNK     1       0.364  34.833 234.436  1.00  0.00     0.039 C 
ATOM     15  C14 UNK     1       0.427  35.943 235.457  1.00  0.00    -0.049 A 
ATOM     16  C15 UNK     1       1.396  37.066 237.368  1.00  0.00     0.011 A 
ATOM     17  C16 UNK     1      -0.577  36.926 235.417  1.00  0.00     0.044 A 
ATOM     18  C17 UNK     1       0.396  38.041 237.313  1.00  0.00     0.037 A 
ATOM     19  C18 UNK     1      -0.593  37.969 236.340  1.00  0.00     0.066 A 
ENDROOT
BRANCH  19  20
ATOM     20  O2  UNK     1      -1.569  38.914 236.287  1.00  0.00    -0.361 OA
ATOM     21  H22 UNK     1      -2.196  38.762 237.015  1.00  0.00     0.217 HD
ENDBRANCH  19  20
TORSDOF 1
ENDMDL
MODEL 2
REMARK VINA RESULT:      -7.1      7.893      9.622
REMARK  1 active torsions:
REMARK  status: ('A' for Active; 'I' for Inactive)
REMARK    1  A    between atoms: O2_2  and  C18_20 
ROOT
ATOM      1  O1  UNK     1       1.208  32.879 227.498  1.00  0.00    -0.297 OA
ATOM      2  C1  UNK     1      -0.193  36.014 228.024  1.00  0.00     0.006 C 
ATOM      3  C2  UNK     1       1.120  35.216 228.170  1.00  0.00     0.021 C 
ATOM      4  C3  UNK     1       0.010  37.483 228.390  1.00  0.00    -0.000 C 
ATOM      5  C4  UNK     1       1.033  38.100 227.385  1.00  0.00     0.024 C 
ATOM      6  C5  UNK     1       2.110  35.753 227.142  1.00  0.00     0.018 C 
ATOM      7  C6  UNK     1      -1.225  35.175 228.768  1.00  0.00     0.013 C 
ATOM      8  C7  UNK     1       2.341  37.265 227.324  1.00  0.00     0.011 C 
ATOM      9  C8  UNK     1      -1.286  38.294 228.340  1.00  0.00     0.010 C 
ATOM     10  C9  UNK     1       0.558  33.828 227.917  1.00  0.00     0.135 C 
ATOM     11  C10 UNK     1      -0.914  33.751 228.286  1.00  0.00     0.079 C 
ATOM     12  C11 UNK     1       1.742  35.188 229.578  1.00  0.00     0.024 C 
ATOM     13  C12 UNK     1       1.227  39.592 227.640  1.00  0.00    -0.047 A 
ATOM     14  C13 UNK     1      -1.030  39.712 228.841  1.00  0.00     0.039 C 
ATOM     15  C14 UNK     1       0.224  40.344 228.290  1.00  0.00    -0.049 A 
ATOM     16  C15 UNK     1       2.362  40.271 227.160  1.00  0.00     0.011 A 
ATOM     17  C16 UNK     1       0.401  41.725 228.485  1.00  0.00     0.044 A 
ATOM     18  C17 UNK     1       2.521  41.645 227.354  1.00  0.00     0.037 A 
ATOM     19  C18 UNK     1       1.543  42.372 228.021  1.00  0.00     0.066 A 
ENDROOT
BRANCH  19  20
ATOM     20  O2  UNK     1       1.698  43.709 228.213  1.00  0.00    -0.361 OA
ATOM     21  H22 UNK     1       1.334  43.947 229.084  1.00  0.00     0.217 HD
ENDBRANCH  19  20
TORSDOF 1
ENDMDL
MODEL 3
REMARK VINA RESULT:      -7.0      3.038      5.292
REMARK  1 active torsions:
REMARK  status: ('A' for Active; 'I' for Inactive)
REMARK    1  A    between atoms: O2_2  and  C18_20 
ROOT
ATOM      1  O1  UNK     1      -1.757  33.560 230.784  1.00  0.00    -0.297 OA
ATOM      2  C1  UNK     1       0.643  33.231 233.274  1.00  0.00     0.006 C 
ATOM      3  C2  UNK     1       0.143  34.185 232.169  1.00  0.00     0.021 C 
ATOM      4  C3  UNK     1       1.761  33.872 234.093  1.00  0.00    -0.000 C 
ATOM      5  C4  UNK     1       1.180  35.132 234.808  1.00  0.00     0.024 C 
ATOM      6  C5  UNK     1      -0.498  35.391 232.847  1.00  0.00     0.018 C 
ATOM      7  C6  UNK     1       0.885  31.913 232.547  1.00  0.00     0.013 C 
ATOM      8  C7  UNK     1       0.493  36.091 233.796  1.00  0.00     0.011 C 
ATOM      9  C8  UNK     1       2.343  32.928 235.146  1.00  0.00     0.010 C 
ATOM     10  C9  UNK     1      -0.794  33.223 231.458  1.00  0.00     0.135 C 
ATOM     11  C10 UNK     1      -0.363  31.780 231.662  1.00  0.00     0.079 C 
ATOM     12  C11 UNK     1       1.190  34.625 231.129  1.00  0.00     0.024 C 
ATOM     13  C12 UNK     1       2.223  35.784 235.712  1.00  0.00    -0.047 A 
ATOM     14  C13 UNK     1       3.534  33.589 235.832  1.00  0.00     0.039 C 
ATOM     15  C14 UNK     1       3.302  35.029 236.221  1.00  0.00    -0.049 A 
ATOM     16  C15 UNK     1       2.090  37.120 236.132  1.00  0.00     0.011 A 
ATOM     17  C16 UNK     1       4.235  35.632 237.082  1.00  0.00     0.044 A 
ATOM     18  C17 UNK     1       3.019  37.705 236.995  1.00  0.00     0.037 A 
ATOM     19  C18 UNK     1       4.095  36.963 237.467  1.00  0.00     0.066 A 
ENDROOT
BRANCH  19  20
ATOM     20  O2  UNK     1       5.002  37.533 238.304  1.00  0.00    -0.361 OA
ATOM     21  H22 UNK     1       5.175  38.444 238.010  1.00  0.00     0.217 HD
ENDBRANCH  19  20
TORSDOF 1
ENDMDL
MODEL 4
REMARK VINA RESULT:      -6.8     10.430     12.823
REMARK  1 active torsions:
REMARK  status: ('A' for Active; 'I' for Inactive)
REMARK    1  A    between atoms: O2_2  and  C18_20 
ROOT
ATOM      1  O1  UNK     1       1.649  41.845 229.586  1.00  0.00    -0.297 OA
ATOM      2  C1  UNK     1      -0.437  41.465 226.834  1.00  0.00     0.006 C 
ATOM      3  C2  UNK     1       0.228  40.685 227.988  1.00  0.00     0.021 C 
ATOM      4  C3  UNK     1      -1.375  40.569 226.028  1.00  0.00    -0.000 C 
ATOM      5  C4  UNK     1      -2.520  40.087 226.973  1.00  0.00     0.024 C 
ATOM      6  C5  UNK     1      -0.867  40.270 228.964  1.00  0.00     0.018 C 
ATOM      7  C6  UNK     1       0.723  42.175 226.146  1.00  0.00     0.013 C 
ATOM      8  C7  UNK     1      -1.954  39.432 228.263  1.00  0.00     0.011 C 
ATOM      9  C8  UNK     1      -1.991  41.281 224.825  1.00  0.00     0.010 C 
ATOM     10  C9  UNK     1       1.188  41.765 228.456  1.00  0.00     0.135 C 
ATOM     11  C10 UNK     1       1.535  42.723 227.329  1.00  0.00     0.079 C 
ATOM     12  C11 UNK     1       1.093  39.478 227.578  1.00  0.00     0.024 C 
ATOM     13  C12 UNK     1      -3.544  39.247 226.216  1.00  0.00    -0.047 A 
ATOM     14  C13 UNK     1      -2.808  40.292 223.999  1.00  0.00     0.039 C 
ATOM     15  C14 UNK     1      -3.696  39.389 224.819  1.00  0.00    -0.049 A 
ATOM     16  C15 UNK     1      -4.421  38.380 226.895  1.00  0.00     0.011 A 
ATOM     17  C16 UNK     1      -4.669  38.635 224.139  1.00  0.00     0.044 A 
ATOM     18  C17 UNK     1      -5.388  37.643 226.208  1.00  0.00     0.037 A 
ATOM     19  C18 UNK     1      -5.510  37.767 224.830  1.00  0.00     0.066 A 
ENDROOT
BRANCH  19  20
ATOM     20  O2  UNK     1      -6.449  37.047 224.160  1.00  0.00    -0.361 OA
ATOM     21  H22 UNK     1      -6.211  36.104 224.198  1.00  0.00     0.217 HD
ENDBRANCH  19  20
TORSDOF 1
ENDMDL
MODEL 5
REMARK VINA RESULT:      -6.7      2.807      4.321
REMARK  1 active torsions:
REMARK  status: ('A' for Active; 'I' for Inactive)
REMARK    1  A    between atoms: O2_2  and  C18_20 
ROOT
ATOM      1  O1  UNK     1       1.038  30.393 231.930  1.00  0.00    -0.297 OA
ATOM      2  C1  UNK     1       1.444  33.602 233.197  1.00  0.00     0.006 C 
ATOM      3  C2  UNK     1       1.103  32.154 233.608  1.00  0.00     0.021 C 
ATOM      4  C3  UNK     1       1.546  34.513 234.419  1.00  0.00    -0.000 C 
ATOM      5  C4  UNK     1       2.722  34.003 235.311  1.00  0.00     0.024 C 
ATOM      6  C5  UNK     1       2.275  31.609 234.417  1.00  0.00     0.018 C 
ATOM      7  C6  UNK     1       0.450  33.919 232.087  1.00  0.00     0.013 C 
ATOM      8  C7  UNK     1       2.566  32.493 235.645  1.00  0.00     0.011 C 
ATOM      9  C8  UNK     1       1.801  35.975 234.051  1.00  0.00     0.010 C 
ATOM     10  C9  UNK     1       0.905  31.575 232.218  1.00  0.00     0.135 C 
ATOM     11  C10 UNK     1       0.486  32.648 231.226  1.00  0.00     0.079 C 
ATOM     12  C11 UNK     1      -0.228  31.958 234.358  1.00  0.00     0.024 C 
ATOM     13  C12 UNK     1       2.937  34.914 236.516  1.00  0.00    -0.047 A 
ATOM     14  C13 UNK     1       1.760  36.840 235.308  1.00  0.00     0.039 C 
ATOM     15  C14 UNK     1       2.515  36.262 236.479  1.00  0.00    -0.049 A 
ATOM     16  C15 UNK     1       3.634  34.467 237.652  1.00  0.00     0.011 A 
ATOM     17  C16 UNK     1       2.753  37.100 237.583  1.00  0.00     0.044 A 
ATOM     18  C17 UNK     1       3.871  35.312 238.739  1.00  0.00     0.037 A 
ATOM     19  C18 UNK     1       3.426  36.628 238.706  1.00  0.00     0.066 A 
ENDROOT
BRANCH  19  20
ATOM     20  O2  UNK     1       3.652  37.451 239.764  1.00  0.00    -0.361 OA
ATOM     21  H22 UNK     1       2.876  37.432 240.351  1.00  0.00     0.217 HD
ENDBRANCH  19  20
TORSDOF 1
ENDMDL
MODEL 6
REMARK VINA RESULT:      -6.6      1.009      6.636
REMARK  1 active torsions:
REMARK  status: ('A' for Active; 'I' for Inactive)
REMARK    1  A    between atoms: O2_2  and  C18_20 
ROOT
ATOM      1  O1  UNK     1      -1.868  37.154 234.814  1.00  0.00    -0.297 OA
ATOM      2  C1  UNK     1       1.060  36.193 236.417  1.00  0.00     0.006 C 
ATOM      3  C2  UNK     1      -0.273  35.646 235.864  1.00  0.00     0.021 C 
ATOM      4  C3  UNK     1       1.954  35.062 236.921  1.00  0.00    -0.000 C 
ATOM      5  C4  UNK     1       2.306  34.143 235.709  1.00  0.00     0.024 C 
ATOM      6  C5  UNK     1       0.042  34.806 234.631  1.00  0.00     0.018 C 
ATOM      7  C6  UNK     1       0.640  37.315 237.360  1.00  0.00     0.013 C 
ATOM      8  C7  UNK     1       1.026  33.669 234.966  1.00  0.00     0.011 C 
ATOM      9  C8  UNK     1       3.251  35.566 237.554  1.00  0.00     0.010 C 
ATOM     10  C9  UNK     1      -0.970  36.975 235.625  1.00  0.00     0.135 C 
ATOM     11  C10 UNK     1      -0.433  38.055 236.549  1.00  0.00     0.079 C 
ATOM     12  C11 UNK     1      -1.150  34.864 236.859  1.00  0.00     0.024 C 
ATOM     13  C12 UNK     1       3.266  33.030 236.120  1.00  0.00    -0.047 A 
ATOM     14  C13 UNK     1       4.027  34.394 238.148  1.00  0.00     0.039 C 
ATOM     15  C14 UNK     1       4.101  33.184 237.248  1.00  0.00    -0.049 A 
ATOM     16  C15 UNK     1       3.408  31.866 235.342  1.00  0.00     0.011 A 
ATOM     17  C16 UNK     1       5.007  32.166 237.595  1.00  0.00     0.044 A 
ATOM     18  C17 UNK     1       4.317  30.866 235.693  1.00  0.00     0.037 A 
ATOM     19  C18 UNK     1       5.114  31.013 236.821  1.00  0.00     0.066 A 
ENDROOT
BRANCH  19  20
ATOM     20  O2  UNK     1       5.997  30.038 237.166  1.00  0.00    -0.361 OA
ATOM     21  H22 UNK     1       6.858  30.448 237.363  1.00  0.00     0.217 HD
ENDBRANCH  19  20
TORSDOF 1
ENDMDL
MODEL 7
REMARK VINA RESULT:      -6.6      3.291      5.608
REMARK  1 active torsions:
REMARK  status: ('A' for Active; 'I' for Inactive)
REMARK    1  A    between atoms: O2_2  and  C18_20 
ROOT
ATOM      1  O1  UNK     1       3.103  35.719 238.832  1.00  0.00    -0.297 OA
ATOM      2  C1  UNK     1       1.690  35.718 235.658  1.00  0.00     0.006 C 
ATOM      3  C2  UNK     1       2.813  35.080 236.502  1.00  0.00     0.021 C 
ATOM      4  C3  UNK     1       1.616  35.087 234.269  1.00  0.00    -0.000 C 
ATOM      5  C4  UNK     1       1.257  33.577 234.438  1.00  0.00     0.024 C 
ATOM      6  C5  UNK     1       2.445  33.620 236.744  1.00  0.00     0.018 C 
ATOM      7  C6  UNK     1       1.918  37.218 235.807  1.00  0.00     0.013 C 
ATOM      8  C7  UNK     1       2.235  32.868 235.416  1.00  0.00     0.011 C 
ATOM      9  C8  UNK     1       0.570  35.748 233.371  1.00  0.00     0.010 C 
ATOM     10  C9  UNK     1       2.741  36.010 237.700  1.00  0.00     0.135 C 
ATOM     11  C10 UNK     1       2.189  37.372 237.311  1.00  0.00     0.079 C 
ATOM     12  C11 UNK     1       4.240  35.205 235.936  1.00  0.00     0.024 C 
ATOM     13  C12 UNK     1       1.087  32.895 233.084  1.00  0.00    -0.047 A 
ATOM     14  C13 UNK     1       0.644  35.155 231.967  1.00  0.00     0.039 C 
ATOM     15  C14 UNK     1       0.754  33.651 231.938  1.00  0.00    -0.049 A 
ATOM     16  C15 UNK     1       1.167  31.496 232.958  1.00  0.00     0.011 A 
ATOM     17  C16 UNK     1       0.564  33.004 230.704  1.00  0.00     0.044 A 
ATOM     18  C17 UNK     1       0.968  30.866 231.727  1.00  0.00     0.037 A 
ATOM     19  C18 UNK     1       0.671  31.620 230.599  1.00  0.00     0.066 A 
ENDROOT
BRANCH  19  20
ATOM     20  O2  UNK     1       0.481  31.008 229.399  1.00  0.00    -0.361 OA
ATOM     21  H22 UNK     1       0.503  31.680 228.696  1.00  0.00     0.217 HD
ENDBRANCH  19  20
TORSDOF 1
ENDMDL
MODEL 8
REMARK VINA RESULT:      -6.5     10.404     13.389
REMARK  1 active torsions:
REMARK  status: ('A' for Active; 'I' for Inactive)
REMARK    1  A    between atoms: O2_2  and  C18_20 
ROOT
ATOM      1  O1  UNK     1      -6.844  39.390 224.301  1.00  0.00    -0.297 OA
ATOM      2  C1  UNK     1      -4.157  38.998 226.467  1.00  0.00     0.006 C 
ATOM      3  C2  UNK     1      -4.520  39.396 225.021  1.00  0.00     0.021 C 
ATOM      4  C3  UNK     1      -2.665  39.187 226.734  1.00  0.00    -0.000 C 
ATOM      5  C4  UNK     1      -2.331  40.704 226.581  1.00  0.00     0.024 C 
ATOM      6  C5  UNK     1      -4.273  40.892 224.872  1.00  0.00     0.018 C 
ATOM      7  C6  UNK     1      -4.800  37.628 226.651  1.00  0.00     0.013 C 
ATOM      8  C7  UNK     1      -2.815  41.256 225.211  1.00  0.00     0.011 C 
ATOM      9  C8  UNK     1      -2.247  38.726 228.131  1.00  0.00     0.010 C 
ATOM     10  C9  UNK     1      -5.969  38.940 225.028  1.00  0.00     0.135 C 
ATOM     11  C10 UNK     1      -6.193  37.823 226.034  1.00  0.00     0.079 C 
ATOM     12  C11 UNK     1      -3.817  38.603 223.904  1.00  0.00     0.024 C 
ATOM     13  C12 UNK     1      -0.867  40.983 226.911  1.00  0.00    -0.047 A 
ATOM     14  C13 UNK     1      -0.732  38.823 228.277  1.00  0.00     0.039 C 
ATOM     15  C14 UNK     1      -0.142  40.107 227.748  1.00  0.00    -0.049 A 
ATOM     16  C15 UNK     1      -0.232  42.158 226.468  1.00  0.00     0.011 A 
ATOM     17  C16 UNK     1       1.195  40.396 228.074  1.00  0.00     0.044 A 
ATOM     18  C17 UNK     1       1.094  42.437 226.806  1.00  0.00     0.037 A 
ATOM     19  C18 UNK     1       1.810  41.554 227.605  1.00  0.00     0.066 A 
ENDROOT
BRANCH  19  20
ATOM     20  O2  UNK     1       3.102  41.823 227.932  1.00  0.00    -0.361 OA
ATOM     21  H22 UNK     1       3.541  42.237 227.169  1.00  0.00     0.217 HD
ENDBRANCH  19  20
TORSDOF 1
ENDMDL
MODEL 9
REMARK VINA RESULT:      -6.5      2.710      5.708
REMARK  1 active torsions:
REMARK  status: ('A' for Active; 'I' for Inactive)
REMARK    1  A    between atoms: O2_2  and  C18_20 
ROOT
ATOM      1  O1  UNK     1      -4.067  34.987 233.302  1.00  0.00    -0.297 OA
ATOM      2  C1  UNK     1      -0.834  34.200 234.300  1.00  0.00     0.006 C 
ATOM      3  C2  UNK     1      -1.737  35.380 233.883  1.00  0.00     0.021 C 
ATOM      4  C3  UNK     1       0.547  34.687 234.734  1.00  0.00    -0.000 C 
ATOM      5  C4  UNK     1       0.370  35.594 235.993  1.00  0.00     0.024 C 
ATOM      6  C5  UNK     1      -1.985  36.238 235.118  1.00  0.00     0.018 C 
ATOM      7  C6  UNK     1      -0.968  33.203 233.155  1.00  0.00     0.013 C 
ATOM      8  C7  UNK     1      -0.661  36.727 235.735  1.00  0.00     0.011 C 
ATOM      9  C8  UNK     1       1.501  33.543 235.078  1.00  0.00     0.010 C 
ATOM     10  C9  UNK     1      -2.915  34.577 233.361  1.00  0.00     0.135 C 
ATOM     11  C10 UNK     1      -2.480  33.201 232.884  1.00  0.00     0.079 C 
ATOM     12  C11 UNK     1      -1.233  36.234 232.705  1.00  0.00     0.024 C 
ATOM     13  C12 UNK     1       1.720  36.057 236.534  1.00  0.00    -0.047 A 
ATOM     14  C13 UNK     1       2.891  34.099 235.374  1.00  0.00     0.039 C 
ATOM     15  C14 UNK     1       2.891  35.315 236.268  1.00  0.00    -0.049 A 
ATOM     16  C15 UNK     1       1.820  37.177 237.381  1.00  0.00     0.011 A 
ATOM     17  C16 UNK     1       4.122  35.733 236.804  1.00  0.00     0.044 A 
ATOM     18  C17 UNK     1       3.048  37.576 237.912  1.00  0.00     0.037 A 
ATOM     19  C18 UNK     1       4.200  36.858 237.621  1.00  0.00     0.066 A 
ENDROOT
BRANCH  19  20
ATOM     20  O2  UNK     1       5.397  37.247 238.135  1.00  0.00    -0.361 OA
ATOM     21  H22 UNK     1       5.393  37.093 239.096  1.00  0.00     0.217 HD
ENDBRANCH  19  20
TORSDOF 1
ENDMDL
