MODEL 1
REMARK VINA RESULT:      -7.1      0.000      0.000
REMARK  2 active torsions:
REMARK  status: ('A' for Active; 'I' for Inactive)
REMARK    1  A    between atoms: C8_8  and  O2_11 
REMARK    2  A    between atoms: O1_10  and  C16_19 
ROOT
ATOM      1  C1  UNK     1      -0.908  39.305 227.705  1.00  0.00    -0.014 A 
ATOM      2  C2  UNK     1       1.357  39.759 227.165  1.00  0.00    -0.042 A 
ATOM      3  C3  UNK     1       0.076  40.226 227.239  1.00  0.00     0.017 A 
ATOM      4  C4  UNK     1       2.227  35.402 227.426  1.00  0.00     0.144 C 
ATOM      5  C5  UNK     1      -2.861  37.458 228.641  1.00  0.00     0.008 A 
ATOM      6  C6  UNK     1      -2.234  39.702 227.825  1.00  0.00     0.013 A 
ATOM      7  C7  UNK     1       2.433  40.549 226.728  1.00  0.00     0.011 A 
ATOM      8  C8  UNK     1       0.948  42.360 226.413  1.00  0.00     0.099 A 
ATOM      9  C9  UNK     1       2.224  41.859 226.347  1.00  0.00     0.040 A 
ATOM     10  N1  UNK     1       0.996  36.055 227.828  1.00  0.00    -0.408 N 
ATOM     11  C10 UNK     1       0.783  37.481 227.953  1.00  0.00     0.117 A 
ATOM     12  C11 UNK     1      -0.607  37.971 228.063  1.00  0.00    -0.018 A 
ATOM     13  C12 UNK     1       1.838  38.430 227.499  1.00  0.00     0.069 A 
ATOM     14  C13 UNK     1      -1.523  37.107 228.501  1.00  0.00    -0.047 A 
ATOM     15  C14 UNK     1      -0.097  35.107 228.136  1.00  0.00     0.121 C 
ATOM     16  C15 UNK     1      -1.323  35.676 228.902  1.00  0.00     0.058 C 
ATOM     17  C16 UNK     1      -0.122  41.586 226.841  1.00  0.00     0.110 A 
ATOM     18  C17 UNK     1      -3.204  38.786 228.285  1.00  0.00     0.001 A 
ENDROOT
BRANCH   8  19
ATOM     19  O2  UNK     1       0.691  43.666 226.026  1.00  0.00    -0.358 OA
ATOM     20  H9  UNK     1       0.071  43.668 225.306  1.00  0.00     0.218 HD
ENDBRANCH   8  19
BRANCH  17  21
ATOM     21  O1  UNK     1      -1.323  42.269 226.821  1.00  0.00    -0.357 OA
ATOM     22  H8  UNK     1      -2.031  41.670 227.030  1.00  0.00     0.218 HD
ENDBRANCH  17  21
TORSDOF 2
ENDMDL
MODEL 2
REMARK VINA RESULT:      -7.0     10.690     12.134
REMARK  2 active torsions:
REMARK  status: ('A' for Active; 'I' for Inactive)
REMARK    1  A    between atoms: C8_8  and  O2_11 
REMARK    2  A    between atoms: O1_10  and  C16_19 
ROOT
ATOM      1  C1  UNK     1       3.644  33.391 236.581  1.00  0.00    -0.014 A 
ATOM      2  C2  UNK     1       3.390  35.347 237.898  1.00  0.00    -0.042 A 
ATOM      3  C3  UNK     1       3.181  34.735 236.696  1.00  0.00     0.017 A 
ATOM      4  C4  UNK     1       6.177  33.610 240.903  1.00  0.00     0.144 C 
ATOM      5  C5  UNK     1       4.566  30.706 236.368  1.00  0.00     0.008 A 
ATOM      6  C6  UNK     1       3.459  32.688 235.398  1.00  0.00     0.013 A 
ATOM      7  C7  UNK     1       2.989  36.668 238.162  1.00  0.00     0.011 A 
ATOM      8  C8  UNK     1       2.126  36.821 235.968  1.00  0.00     0.099 A 
ATOM      9  C9  UNK     1       2.354  37.409 237.187  1.00  0.00     0.040 A 
ATOM     10  N1  UNK     1       5.602  32.916 239.766  1.00  0.00    -0.408 N 
ATOM     11  C10 UNK     1       4.534  33.400 238.917  1.00  0.00     0.117 A 
ATOM     12  C11 UNK     1       4.299  32.709 237.632  1.00  0.00    -0.018 A 
ATOM     13  C12 UNK     1       4.034  34.794 239.077  1.00  0.00     0.069 A 
ATOM     14  C13 UNK     1       4.730  31.451 237.530  1.00  0.00    -0.047 A 
ATOM     15  C14 UNK     1       6.207  31.589 239.522  1.00  0.00     0.121 C 
ATOM     16  C15 UNK     1       5.438  30.633 238.569  1.00  0.00     0.058 C 
ATOM     17  C16 UNK     1       2.522  35.519 235.698  1.00  0.00     0.110 A 
ATOM     18  C17 UNK     1       3.919  31.358 235.289  1.00  0.00     0.001 A 
ENDROOT
BRANCH   8  19
ATOM     19  O2  UNK     1       1.504  37.535 234.955  1.00  0.00    -0.358 OA
ATOM     20  H9  UNK     1       1.178  36.933 234.297  1.00  0.00     0.218 HD
ENDBRANCH   8  19
BRANCH  17  21
ATOM     21  O1  UNK     1       2.214  35.117 234.411  1.00  0.00    -0.357 OA
ATOM     22  H8  UNK     1       1.349  35.435 234.178  1.00  0.00     0.218 HD
ENDBRANCH  17  21
TORSDOF 2
ENDMDL
MODEL 3
REMARK VINA RESULT:      -6.9     10.663     12.493
REMARK  2 active torsions:
REMARK  status: ('A' for Active; 'I' for Inactive)
REMARK    1  A    between atoms: C8_8  and  O2_11 
REMARK    2  A    between atoms: O1_10  and  C16_19 
ROOT
ATOM      1  C1  UNK     1       3.867  34.195 237.769  1.00  0.00    -0.014 A 
ATOM      2  C2  UNK     1       3.478  32.719 235.952  1.00  0.00    -0.042 A 
ATOM      3  C3  UNK     1       4.117  32.940 237.139  1.00  0.00     0.017 A 
ATOM      4  C4  UNK     1       1.535  36.055 233.738  1.00  0.00     0.144 C 
ATOM      5  C5  UNK     1       3.354  36.701 239.017  1.00  0.00     0.008 A 
ATOM      6  C6  UNK     1       4.464  34.496 238.986  1.00  0.00     0.013 A 
ATOM      7  C7  UNK     1       3.624  31.531 235.217  1.00  0.00     0.011 A 
ATOM      8  C8  UNK     1       5.095  30.710 236.875  1.00  0.00     0.099 A 
ATOM      9  C9  UNK     1       4.442  30.521 235.683  1.00  0.00     0.040 A 
ATOM     10  N1  UNK     1       1.931  36.070 235.134  1.00  0.00    -0.408 N 
ATOM     11  C10 UNK     1       2.358  34.928 235.915  1.00  0.00     0.117 A 
ATOM     12  C11 UNK     1       3.021  35.181 237.212  1.00  0.00    -0.018 A 
ATOM     13  C12 UNK     1       2.576  33.613 235.249  1.00  0.00     0.069 A 
ATOM     14  C13 UNK     1       2.782  36.355 237.798  1.00  0.00    -0.047 A 
ATOM     15  C14 UNK     1       1.854  37.411 235.751  1.00  0.00     0.121 C 
ATOM     16  C15 UNK     1       1.914  37.473 237.302  1.00  0.00     0.058 C 
ATOM     17  C16 UNK     1       4.960  31.882 237.606  1.00  0.00     0.110 A 
ATOM     18  C17 UNK     1       4.214  35.740 239.604  1.00  0.00     0.001 A 
ENDROOT
BRANCH   8  19
ATOM     19  O2  UNK     1       5.937  29.728 237.372  1.00  0.00    -0.358 OA
ATOM     20  H9  UNK     1       5.672  28.881 237.033  1.00  0.00     0.218 HD
ENDBRANCH   8  19
BRANCH  17  21
ATOM     21  O1  UNK     1       5.709  31.883 238.767  1.00  0.00    -0.357 OA
ATOM     22  H8  UNK     1       5.929  30.989 239.003  1.00  0.00     0.218 HD
ENDBRANCH  17  21
TORSDOF 2
ENDMDL
MODEL 4
REMARK VINA RESULT:      -6.8      1.502      3.481
REMARK  2 active torsions:
REMARK  status: ('A' for Active; 'I' for Inactive)
REMARK    1  A    between atoms: C8_8  and  O2_11 
REMARK    2  A    between atoms: O1_10  and  C16_19 
ROOT
ATOM      1  C1  UNK     1       1.299  37.932 227.557  1.00  0.00    -0.014 A 
ATOM      2  C2  UNK     1      -0.459  39.503 227.820  1.00  0.00    -0.042 A 
ATOM      3  C3  UNK     1       0.810  39.260 227.377  1.00  0.00     0.017 A 
ATOM      4  C4  UNK     1      -2.543  36.627 230.502  1.00  0.00     0.144 C 
ATOM      5  C5  UNK     1       2.261  35.277 227.916  1.00  0.00     0.008 A 
ATOM      6  C6  UNK     1       2.574  37.594 227.122  1.00  0.00     0.013 A 
ATOM      7  C7  UNK     1      -1.077  40.760 227.710  1.00  0.00     0.011 A 
ATOM      8  C8  UNK     1       0.873  41.605 226.678  1.00  0.00     0.099 A 
ATOM      9  C9  UNK     1      -0.403  41.818 227.136  1.00  0.00     0.040 A 
ATOM     10  N1  UNK     1      -1.372  36.349 229.693  1.00  0.00    -0.408 N 
ATOM     11  C10 UNK     1      -0.821  37.201 228.660  1.00  0.00     0.117 A 
ATOM     12  C11 UNK     1       0.541  36.908 228.169  1.00  0.00    -0.018 A 
ATOM     13  C12 UNK     1      -1.371  38.571 228.458  1.00  0.00     0.069 A 
ATOM     14  C13 UNK     1       0.994  35.664 228.336  1.00  0.00    -0.047 A 
ATOM     15  C14 UNK     1      -0.741  35.047 230.003  1.00  0.00     0.121 C 
ATOM     16  C15 UNK     1       0.287  34.505 228.973  1.00  0.00     0.058 C 
ATOM     17  C16 UNK     1       1.493  40.368 226.786  1.00  0.00     0.110 A 
ATOM     18  C17 UNK     1       3.054  36.279 227.303  1.00  0.00     0.001 A 
ENDROOT
BRANCH   8  19
ATOM     19  O2  UNK     1       1.592  42.645 226.109  1.00  0.00    -0.358 OA
ATOM     20  H9  UNK     1       1.296  42.785 225.217  1.00  0.00     0.218 HD
ENDBRANCH   8  19
BRANCH  17  21
ATOM     21  O1  UNK     1       2.779  40.364 226.279  1.00  0.00    -0.357 OA
ATOM     22  H8  UNK     1       2.747  40.302 225.332  1.00  0.00     0.218 HD
ENDBRANCH  17  21
TORSDOF 2
ENDMDL
MODEL 5
REMARK VINA RESULT:      -6.8      2.205      3.329
REMARK  2 active torsions:
REMARK  status: ('A' for Active; 'I' for Inactive)
REMARK    1  A    between atoms: C8_8  and  O2_11 
REMARK    2  A    between atoms: O1_10  and  C16_19 
ROOT
ATOM      1  C1  UNK     1      -2.457  40.439 226.357  1.00  0.00    -0.014 A 
ATOM      2  C2  UNK     1      -0.761  39.946 227.941  1.00  0.00    -0.042 A 
ATOM      3  C3  UNK     1      -1.208  40.780 226.957  1.00  0.00     0.017 A 
ATOM      4  C4  UNK     1      -2.583  35.932 228.549  1.00  0.00     0.144 C 
ATOM      5  C5  UNK     1      -4.951  39.751 225.172  1.00  0.00     0.008 A 
ATOM      6  C6  UNK     1      -2.993  41.242 225.358  1.00  0.00     0.013 A 
ATOM      7  C7  UNK     1       0.449  40.153 228.625  1.00  0.00     0.011 A 
ATOM      8  C8  UNK     1       0.823  42.096 227.332  1.00  0.00     0.099 A 
ATOM      9  C9  UNK     1       1.246  41.236 228.314  1.00  0.00     0.040 A 
ATOM     10  N1  UNK     1      -3.164  37.031 227.802  1.00  0.00    -0.408 N 
ATOM     11  C10 UNK     1      -2.689  38.399 227.782  1.00  0.00     0.117 A 
ATOM     12  C11 UNK     1      -3.204  39.299 226.730  1.00  0.00    -0.018 A 
ATOM     13  C12 UNK     1      -1.403  38.747 228.448  1.00  0.00     0.069 A 
ATOM     14  C13 UNK     1      -4.373  38.978 226.173  1.00  0.00    -0.047 A 
ATOM     15  C14 UNK     1      -4.359  36.644 227.022  1.00  0.00     0.121 C 
ATOM     16  C15 UNK     1      -5.247  37.799 226.481  1.00  0.00     0.058 C 
ATOM     17  C16 UNK     1      -0.369  41.897 226.649  1.00  0.00     0.110 A 
ATOM     18  C17 UNK     1      -4.228  40.899 224.767  1.00  0.00     0.001 A 
ENDROOT
BRANCH   8  19
ATOM     19  O2  UNK     1       1.601  43.187 226.978  1.00  0.00    -0.358 OA
ATOM     20  H9  UNK     1       1.042  43.940 226.829  1.00  0.00     0.218 HD
ENDBRANCH   8  19
BRANCH  17  21
ATOM     21  O1  UNK     1      -0.608  42.863 225.689  1.00  0.00    -0.357 OA
ATOM     22  H8  UNK     1      -1.545  42.981 225.585  1.00  0.00     0.218 HD
ENDBRANCH  17  21
TORSDOF 2
ENDMDL
MODEL 6
REMARK VINA RESULT:      -6.7      9.727     11.153
REMARK  2 active torsions:
REMARK  status: ('A' for Active; 'I' for Inactive)
REMARK    1  A    between atoms: C8_8  and  O2_11 
REMARK    2  A    between atoms: O1_10  and  C16_19 
ROOT
ATOM      1  C1  UNK     1       3.050  35.825 236.738  1.00  0.00    -0.014 A 
ATOM      2  C2  UNK     1       2.487  33.833 235.579  1.00  0.00    -0.042 A 
ATOM      3  C3  UNK     1       2.404  35.195 235.633  1.00  0.00     0.017 A 
ATOM      4  C4  UNK     1       3.832  31.474 239.105  1.00  0.00     0.144 C 
ATOM      5  C5  UNK     1       4.347  37.069 238.945  1.00  0.00     0.008 A 
ATOM      6  C6  UNK     1       3.028  37.208 236.863  1.00  0.00     0.013 A 
ATOM      7  C7  UNK     1       1.904  33.074 234.550  1.00  0.00     0.011 A 
ATOM      8  C8  UNK     1       1.110  35.067 233.559  1.00  0.00     0.099 A 
ATOM      9  C9  UNK     1       1.208  33.698 233.535  1.00  0.00     0.040 A 
ATOM     10  N1  UNK     1       4.024  32.898 238.904  1.00  0.00    -0.408 N 
ATOM     11  C10 UNK     1       3.790  33.629 237.676  1.00  0.00     0.117 A 
ATOM     12  C11 UNK     1       3.732  35.104 237.745  1.00  0.00    -0.018 A 
ATOM     13  C12 UNK     1       3.151  32.946 236.517  1.00  0.00     0.069 A 
ATOM     14  C13 UNK     1       4.340  35.689 238.778  1.00  0.00    -0.047 A 
ATOM     15  C14 UNK     1       4.519  33.599 240.108  1.00  0.00     0.121 C 
ATOM     16  C15 UNK     1       5.084  35.031 239.902  1.00  0.00     0.058 C 
ATOM     17  C16 UNK     1       1.680  35.824 234.572  1.00  0.00     0.110 A 
ATOM     18  C17 UNK     1       3.667  37.826 237.959  1.00  0.00     0.001 A 
ENDROOT
BRANCH   8  19
ATOM     19  O2  UNK     1       0.407  35.732 232.566  1.00  0.00    -0.358 OA
ATOM     20  H9  UNK     1       0.238  35.139 231.844  1.00  0.00     0.218 HD
ENDBRANCH   8  19
BRANCH  17  21
ATOM     21  O1  UNK     1       1.457  37.180 234.423  1.00  0.00    -0.357 OA
ATOM     22  H8  UNK     1       2.269  37.652 234.563  1.00  0.00     0.218 HD
ENDBRANCH  17  21
TORSDOF 2
ENDMDL
MODEL 7
REMARK VINA RESULT:      -6.5      9.273     10.986
REMARK  2 active torsions:
REMARK  status: ('A' for Active; 'I' for Inactive)
REMARK    1  A    between atoms: C8_8  and  O2_11 
REMARK    2  A    between atoms: O1_10  and  C16_19 
ROOT
ATOM      1  C1  UNK     1       2.150  35.153 235.663  1.00  0.00    -0.014 A 
ATOM      2  C2  UNK     1       2.831  32.885 235.518  1.00  0.00    -0.042 A 
ATOM      3  C3  UNK     1       2.062  33.890 235.005  1.00  0.00     0.017 A 
ATOM      4  C4  UNK     1       4.719  33.260 239.531  1.00  0.00     0.144 C 
ATOM      5  C5  UNK     1       2.339  37.668 236.982  1.00  0.00     0.008 A 
ATOM      6  C6  UNK     1       1.413  36.234 235.198  1.00  0.00     0.013 A 
ATOM      7  C7  UNK     1       2.852  31.588 234.976  1.00  0.00     0.011 A 
ATOM      8  C8  UNK     1       1.292  32.271 233.337  1.00  0.00     0.099 A 
ATOM      9  C9  UNK     1       2.074  31.281 233.878  1.00  0.00     0.040 A 
ATOM     10  N1  UNK     1       4.186  34.346 238.730  1.00  0.00    -0.408 N 
ATOM     11  C10 UNK     1       3.774  34.267 237.345  1.00  0.00     0.117 A 
ATOM     12  C11 UNK     1       2.967  35.376 236.794  1.00  0.00    -0.018 A 
ATOM     13  C12 UNK     1       3.726  32.945 236.659  1.00  0.00     0.069 A 
ATOM     14  C13 UNK     1       3.055  36.556 237.411  1.00  0.00    -0.047 A 
ATOM     15  C14 UNK     1       4.096  35.626 239.465  1.00  0.00     0.121 C 
ATOM     16  C15 UNK     1       3.878  36.908 238.614  1.00  0.00     0.058 C 
ATOM     17  C16 UNK     1       1.263  33.553 233.868  1.00  0.00     0.110 A 
ATOM     18  C17 UNK     1       1.502  37.481 235.854  1.00  0.00     0.001 A 
ENDROOT
BRANCH   8  19
ATOM     19  O2  UNK     1       0.484  32.001 232.244  1.00  0.00    -0.358 OA
ATOM     20  H9  UNK     1      -0.316  32.509 232.308  1.00  0.00     0.218 HD
ENDBRANCH   8  19
BRANCH  17  21
ATOM     21  O1  UNK     1       0.403  34.398 233.190  1.00  0.00    -0.357 OA
ATOM     22  H8  UNK     1       0.380  35.242 233.626  1.00  0.00     0.218 HD
ENDBRANCH  17  21
TORSDOF 2
ENDMDL
MODEL 8
REMARK VINA RESULT:      -6.5      8.263      9.933
REMARK  2 active torsions:
REMARK  status: ('A' for Active; 'I' for Inactive)
REMARK    1  A    between atoms: C8_8  and  O2_11 
REMARK    2  A    between atoms: O1_10  and  C16_19 
ROOT
ATOM      1  C1  UNK     1       2.275  33.845 235.179  1.00  0.00    -0.014 A 
ATOM      2  C2  UNK     1       2.082  36.169 235.615  1.00  0.00    -0.042 A 
ATOM      3  C3  UNK     1       2.590  34.964 236.007  1.00  0.00     0.017 A 
ATOM      4  C4  UNK     1      -1.121  36.418 232.535  1.00  0.00     0.144 C 
ATOM      5  C5  UNK     1       1.643  31.623 233.516  1.00  0.00     0.008 A 
ATOM      6  C6  UNK     1       2.762  32.584 235.496  1.00  0.00     0.013 A 
ATOM      7  C7  UNK     1       2.308  37.360 236.326  1.00  0.00     0.011 A 
ATOM      8  C8  UNK     1       3.599  36.152 237.895  1.00  0.00     0.099 A 
ATOM      9  C9  UNK     1       3.071  37.347 237.476  1.00  0.00     0.040 A 
ATOM     10  N1  UNK     1      -0.264  35.275 232.789  1.00  0.00    -0.408 N 
ATOM     11  C10 UNK     1       0.915  35.258 233.629  1.00  0.00     0.117 A 
ATOM     12  C11 UNK     1       1.472  33.946 234.020  1.00  0.00    -0.018 A 
ATOM     13  C12 UNK     1       1.253  36.450 234.457  1.00  0.00     0.069 A 
ATOM     14  C13 UNK     1       1.177  32.904 233.242  1.00  0.00    -0.047 A 
ATOM     15  C14 UNK     1      -0.692  34.051 232.078  1.00  0.00     0.121 C 
ATOM     16  C15 UNK     1       0.336  32.890 232.001  1.00  0.00     0.058 C 
ATOM     17  C16 UNK     1       3.378  34.971 237.200  1.00  0.00     0.110 A 
ATOM     18  C17 UNK     1       2.447  31.480 234.674  1.00  0.00     0.001 A 
ENDROOT
BRANCH   8  19
ATOM     19  O2  UNK     1       4.359  36.092 239.053  1.00  0.00    -0.358 OA
ATOM     20  H9  UNK     1       3.791  36.179 239.810  1.00  0.00     0.218 HD
ENDBRANCH   8  19
BRANCH  17  21
ATOM     21  O1  UNK     1       3.982  33.876 237.791  1.00  0.00    -0.357 OA
ATOM     22  H8  UNK     1       4.926  33.957 237.716  1.00  0.00     0.218 HD
ENDBRANCH  17  21
TORSDOF 2
ENDMDL
MODEL 9
REMARK VINA RESULT:      -6.4      9.439     10.923
REMARK  2 active torsions:
REMARK  status: ('A' for Active; 'I' for Inactive)
REMARK    1  A    between atoms: C8_8  and  O2_11 
REMARK    2  A    between atoms: O1_10  and  C16_19 
ROOT
ATOM      1  C1  UNK     1       1.526  35.013 236.501  1.00  0.00    -0.014 A 
ATOM      2  C2  UNK     1      -0.818  35.017 236.868  1.00  0.00    -0.042 A 
ATOM      3  C3  UNK     1       0.298  35.737 236.553  1.00  0.00     0.017 A 
ATOM      4  C4  UNK     1      -0.497  30.913 238.561  1.00  0.00     0.144 C 
ATOM      5  C5  UNK     1       3.967  33.553 236.395  1.00  0.00     0.008 A 
ATOM      6  C6  UNK     1       2.707  35.665 236.174  1.00  0.00     0.013 A 
ATOM      7  C7  UNK     1      -2.098  35.591 236.955  1.00  0.00     0.011 A 
ATOM      8  C8  UNK     1      -1.169  37.691 236.397  1.00  0.00     0.099 A 
ATOM      9  C9  UNK     1      -2.271  36.940 236.719  1.00  0.00     0.040 A 
ATOM     10  N1  UNK     1       0.552  31.639 237.872  1.00  0.00    -0.408 N 
ATOM     11  C10 UNK     1       0.396  32.873 237.131  1.00  0.00     0.117 A 
ATOM     12  C11 UNK     1       1.614  33.628 236.770  1.00  0.00    -0.018 A 
ATOM     13  C12 UNK     1      -0.906  33.598 237.162  1.00  0.00     0.069 A 
ATOM     14  C13 UNK     1       2.759  32.945 236.720  1.00  0.00    -0.047 A 
ATOM     15  C14 UNK     1       1.877  30.990 237.970  1.00  0.00     0.121 C 
ATOM     16  C15 UNK     1       2.975  31.486 236.990  1.00  0.00     0.058 C 
ATOM     17  C16 UNK     1       0.099  37.133 236.312  1.00  0.00     0.110 A 
ATOM     18  C17 UNK     1       3.919  34.943 236.124  1.00  0.00     0.001 A 
ENDROOT
BRANCH   8  19
ATOM     19  O2  UNK     1      -1.297  39.052 236.167  1.00  0.00    -0.358 OA
ATOM     20  H9  UNK     1      -2.058  39.213 235.622  1.00  0.00     0.218 HD
ENDBRANCH   8  19
BRANCH  17  21
ATOM     21  O1  UNK     1       1.075  38.057 235.990  1.00  0.00    -0.357 OA
ATOM     22  H8  UNK     1       0.756  38.627 235.299  1.00  0.00     0.218 HD
ENDBRANCH  17  21
TORSDOF 2
ENDMDL
