MODEL 1
REMARK VINA RESULT:      -5.7      0.000      0.000
REMARK  5 active torsions:
REMARK  status: ('A' for Active; 'I' for Inactive)
REMARK    1  A    between atoms: O1_1  and  C1_4 
REMARK    2  A    between atoms: O2_2  and  C6_9 
REMARK    3  A    between atoms: N1_3  and  C2_5 
REMARK    4  A    between atoms: C1_4  and  C2_5 
REMARK    5  A    between atoms: C1_4  and  C3_6 
ROOT
ATOM      1  C3  UNK     1       0.669  41.846 227.456  1.00  0.00    -0.025 A 
ATOM      2  C4  UNK     1       0.295  40.983 228.485  1.00  0.00     0.046 A 
ATOM      3  C5  UNK     1      -0.209  42.094 226.399  1.00  0.00     0.010 A 
ATOM      4  C6  UNK     1      -0.958  40.368 228.460  1.00  0.00     0.066 A 
ATOM      5  C7  UNK     1      -1.460  41.479 226.375  1.00  0.00     0.003 A 
ATOM      6  C8  UNK     1      -1.835  40.616 227.404  1.00  0.00     0.036 A 
ENDROOT
BRANCH   1   7
ATOM      7  C1  UNK     1       2.007  42.504 227.483  1.00  0.00     0.179 C 
BRANCH   7   8
ATOM      8  O1  UNK     1       1.844  43.879 227.854  1.00  0.00    -0.389 OA
ATOM      9  H8  UNK     1       2.633  44.140 228.358  1.00  0.00     0.210 HD
ENDBRANCH   7   8
BRANCH   7  10
ATOM     10  C2  UNK     1       2.974  41.817 228.467  1.00  0.00     0.305 C 
BRANCH  10  11
ATOM     11  N1  UNK     1       3.882  42.779 229.089  1.00  0.00     0.082 N 
ATOM     12  C9  UNK     1       4.526  42.198 230.257  1.00  0.00     0.306 C 
ATOM     13  H6  UNK     1       3.362  43.610 229.365  1.00  0.00     0.315 HD
ENDBRANCH  10  11
ENDBRANCH   7  10
ENDBRANCH   1   7
BRANCH   4  14
ATOM     14  O2  UNK     1      -1.323  39.526 229.465  1.00  0.00    -0.361 OA
ATOM     15  H13 UNK     1      -1.217  39.988 230.316  1.00  0.00     0.217 HD
ENDBRANCH   4  14
TORSDOF 5
ENDMDL
MODEL 2
REMARK VINA RESULT:      -5.5      1.451      1.989
REMARK  5 active torsions:
REMARK  status: ('A' for Active; 'I' for Inactive)
REMARK    1  A    between atoms: O1_1  and  C1_4 
REMARK    2  A    between atoms: O2_2  and  C6_9 
REMARK    3  A    between atoms: N1_3  and  C2_5 
REMARK    4  A    between atoms: C1_4  and  C2_5 
REMARK    5  A    between atoms: C1_4  and  C3_6 
ROOT
ATOM      1  C3  UNK     1       0.812  41.951 227.563  1.00  0.00    -0.025 A 
ATOM      2  C4  UNK     1       0.193  41.946 226.314  1.00  0.00     0.046 A 
ATOM      3  C5  UNK     1       0.193  41.337 228.652  1.00  0.00     0.010 A 
ATOM      4  C6  UNK     1      -1.046  41.324 226.152  1.00  0.00     0.066 A 
ATOM      5  C7  UNK     1      -1.046  40.716 228.490  1.00  0.00     0.003 A 
ATOM      6  C8  UNK     1      -1.665  40.709 227.241  1.00  0.00     0.036 A 
ENDROOT
BRANCH   1   7
ATOM      7  C1  UNK     1       2.137  42.615 227.737  1.00  0.00     0.179 C 
BRANCH   7   8
ATOM      8  O1  UNK     1       1.931  44.015 227.967  1.00  0.00    -0.389 OA
ATOM      9  H8  UNK     1       1.255  44.318 227.337  1.00  0.00     0.210 HD
ENDBRANCH   7   8
BRANCH   7  10
ATOM     10  C2  UNK     1       2.941  42.014 228.906  1.00  0.00     0.305 C 
BRANCH  10  11
ATOM     11  N1  UNK     1       4.166  42.769 229.161  1.00  0.00     0.082 N 
ATOM     12  C9  UNK     1       4.820  42.297 230.372  1.00  0.00     0.306 C 
ATOM     13  H6  UNK     1       3.942  43.759 229.259  1.00  0.00     0.315 HD
ENDBRANCH  10  11
ENDBRANCH   7  10
ENDBRANCH   1   7
BRANCH   4  14
ATOM     14  O2  UNK     1      -1.650  41.317 224.932  1.00  0.00    -0.361 OA
ATOM     15  H13 UNK     1      -2.033  42.197 224.766  1.00  0.00     0.217 HD
ENDBRANCH   4  14
TORSDOF 5
ENDMDL
MODEL 3
REMARK VINA RESULT:      -5.5      9.533     10.225
REMARK  5 active torsions:
REMARK  status: ('A' for Active; 'I' for Inactive)
REMARK    1  A    between atoms: O1_1  and  C1_4 
REMARK    2  A    between atoms: O2_2  and  C6_9 
REMARK    3  A    between atoms: N1_3  and  C2_5 
REMARK    4  A    between atoms: C1_4  and  C2_5 
REMARK    5  A    between atoms: C1_4  and  C3_6 
ROOT
ATOM      1  C3  UNK     1       1.209  36.484 236.772  1.00  0.00    -0.025 A 
ATOM      2  C4  UNK     1       0.610  37.731 236.598  1.00  0.00     0.046 A 
ATOM      3  C5  UNK     1       0.422  35.332 236.818  1.00  0.00     0.010 A 
ATOM      4  C6  UNK     1      -0.776  37.828 236.467  1.00  0.00     0.066 A 
ATOM      5  C7  UNK     1      -0.963  35.429 236.688  1.00  0.00     0.003 A 
ATOM      6  C8  UNK     1      -1.562  36.676 236.513  1.00  0.00     0.036 A 
ENDROOT
BRANCH   1   7
ATOM      7  C1  UNK     1       2.691  36.380 236.911  1.00  0.00     0.179 C 
BRANCH   7   8
ATOM      8  O1  UNK     1       3.251  35.984 235.652  1.00  0.00    -0.389 OA
ATOM      9  H8  UNK     1       3.306  35.014 235.650  1.00  0.00     0.210 HD
ENDBRANCH   7   8
BRANCH   7  10
ATOM     10  C2  UNK     1       3.328  37.709 237.362  1.00  0.00     0.305 C 
BRANCH  10  11
ATOM     11  N1  UNK     1       4.774  37.582 237.533  1.00  0.00     0.082 N 
ATOM     12  C9  UNK     1       5.086  36.814 238.729  1.00  0.00     0.306 C 
ATOM     13  H6  UNK     1       5.192  38.509 237.605  1.00  0.00     0.315 HD
ENDBRANCH  10  11
ENDBRANCH   7  10
ENDBRANCH   1   7
BRANCH   4  14
ATOM     14  O2  UNK     1      -1.360  39.045 236.296  1.00  0.00    -0.361 OA
ATOM     15  H13 UNK     1      -0.913  39.508 235.566  1.00  0.00     0.217 HD
ENDBRANCH   4  14
TORSDOF 5
ENDMDL
MODEL 4
REMARK VINA RESULT:      -5.4      2.916      5.002
REMARK  5 active torsions:
REMARK  status: ('A' for Active; 'I' for Inactive)
REMARK    1  A    between atoms: O1_1  and  C1_4 
REMARK    2  A    between atoms: O2_2  and  C6_9 
REMARK    3  A    between atoms: N1_3  and  C2_5 
REMARK    4  A    between atoms: C1_4  and  C2_5 
REMARK    5  A    between atoms: C1_4  and  C3_6 
ROOT
ATOM      1  C3  UNK     1       1.436  41.719 227.274  1.00  0.00    -0.025 A 
ATOM      2  C4  UNK     1       2.185  42.629 228.019  1.00  0.00     0.046 A 
ATOM      3  C5  UNK     1       1.972  40.473 226.948  1.00  0.00     0.010 A 
ATOM      4  C6  UNK     1       3.472  42.292 228.442  1.00  0.00     0.066 A 
ATOM      5  C7  UNK     1       3.258  40.137 227.371  1.00  0.00     0.003 A 
ATOM      6  C8  UNK     1       4.008  41.046 228.117  1.00  0.00     0.036 A 
ENDROOT
BRANCH   1   7
ATOM      7  C1  UNK     1       0.060  42.079 226.823  1.00  0.00     0.179 C 
BRANCH   7   8
ATOM      8  O1  UNK     1       0.142  43.165 225.891  1.00  0.00    -0.389 OA
ATOM      9  H8  UNK     1      -0.547  43.026 225.219  1.00  0.00     0.210 HD
ENDBRANCH   7   8
BRANCH   7  10
ATOM     10  C2  UNK     1      -0.667  40.890 226.163  1.00  0.00     0.305 C 
BRANCH  10  11
ATOM     11  N1  UNK     1      -1.520  41.325 225.060  1.00  0.00     0.082 N 
ATOM     12  C9  UNK     1      -2.924  41.251 225.435  1.00  0.00     0.306 C 
ATOM     13  H6  UNK     1      -1.354  40.734 224.246  1.00  0.00     0.315 HD
ENDBRANCH  10  11
ENDBRANCH   7  10
ENDBRANCH   1   7
BRANCH   4  14
ATOM     14  O2  UNK     1       4.203  43.179 229.170  1.00  0.00    -0.361 OA
ATOM     15  H13 UNK     1       4.550  43.866 228.574  1.00  0.00     0.217 HD
ENDBRANCH   4  14
TORSDOF 5
ENDMDL
MODEL 5
REMARK VINA RESULT:      -5.0      8.846     10.700
REMARK  5 active torsions:
REMARK  status: ('A' for Active; 'I' for Inactive)
REMARK    1  A    between atoms: O1_1  and  C1_4 
REMARK    2  A    between atoms: O2_2  and  C6_9 
REMARK    3  A    between atoms: N1_3  and  C2_5 
REMARK    4  A    between atoms: C1_4  and  C2_5 
REMARK    5  A    between atoms: C1_4  and  C3_6 
ROOT
ATOM      1  C3  UNK     1       1.311  36.658 236.778  1.00  0.00    -0.025 A 
ATOM      2  C4  UNK     1       2.345  37.539 237.091  1.00  0.00     0.046 A 
ATOM      3  C5  UNK     1       1.599  35.330 236.461  1.00  0.00     0.010 A 
ATOM      4  C6  UNK     1       3.667  37.094 237.089  1.00  0.00     0.066 A 
ATOM      5  C7  UNK     1       2.920  34.884 236.458  1.00  0.00     0.003 A 
ATOM      6  C8  UNK     1       3.955  35.766 236.772  1.00  0.00     0.036 A 
ENDROOT
BRANCH   1   7
ATOM      7  C1  UNK     1      -0.103  37.134 236.782  1.00  0.00     0.179 C 
BRANCH   7   8
ATOM      8  O1  UNK     1      -0.130  38.519 236.413  1.00  0.00    -0.389 OA
ATOM      9  H8  UNK     1      -1.063  38.775 236.314  1.00  0.00     0.210 HD
ENDBRANCH   7   8
BRANCH   7  10
ATOM     10  C2  UNK     1      -0.992  36.327 235.816  1.00  0.00     0.305 C 
BRANCH  10  11
ATOM     11  N1  UNK     1      -1.130  36.997 234.525  1.00  0.00     0.082 N 
ATOM     12  C9  UNK     1      -1.883  36.170 233.593  1.00  0.00     0.306 C 
ATOM     13  H6  UNK     1      -0.206  37.189 234.139  1.00  0.00     0.315 HD
ENDBRANCH  10  11
ENDBRANCH   7  10
ENDBRANCH   1   7
BRANCH   4  14
ATOM     14  O2  UNK     1       4.676  37.954 237.395  1.00  0.00    -0.361 OA
ATOM     15  H13 UNK     1       4.293  38.772 237.757  1.00  0.00     0.217 HD
ENDBRANCH   4  14
TORSDOF 5
ENDMDL
MODEL 6
REMARK VINA RESULT:      -5.0      2.436      3.433
REMARK  5 active torsions:
REMARK  status: ('A' for Active; 'I' for Inactive)
REMARK    1  A    between atoms: O1_1  and  C1_4 
REMARK    2  A    between atoms: O2_2  and  C6_9 
REMARK    3  A    between atoms: N1_3  and  C2_5 
REMARK    4  A    between atoms: C1_4  and  C2_5 
REMARK    5  A    between atoms: C1_4  and  C3_6 
ROOT
ATOM      1  C3  UNK     1      -1.270  40.913 226.874  1.00  0.00    -0.025 A 
ATOM      2  C4  UNK     1      -1.269  41.270 225.526  1.00  0.00     0.046 A 
ATOM      3  C5  UNK     1      -2.253  40.055 227.368  1.00  0.00     0.010 A 
ATOM      4  C6  UNK     1      -2.250  40.768 224.670  1.00  0.00     0.066 A 
ATOM      5  C7  UNK     1      -3.233  39.553 226.513  1.00  0.00     0.003 A 
ATOM      6  C8  UNK     1      -3.233  39.909 225.164  1.00  0.00     0.036 A 
ENDROOT
BRANCH   1   7
ATOM      7  C1  UNK     1      -0.220  41.449 227.788  1.00  0.00     0.179 C 
BRANCH   7   8
ATOM      8  O1  UNK     1      -0.816  41.750 229.057  1.00  0.00    -0.389 OA
ATOM      9  H8  UNK     1      -0.263  41.339 229.743  1.00  0.00     0.210 HD
ENDBRANCH   7   8
BRANCH   7  10
ATOM     10  C2  UNK     1       0.941  40.455 227.988  1.00  0.00     0.305 C 
BRANCH  10  11
ATOM     11  N1  UNK     1       2.213  41.146 228.188  1.00  0.00     0.082 N 
ATOM     12  C9  UNK     1       2.210  42.436 227.513  1.00  0.00     0.306 C 
ATOM     13  H6  UNK     1       2.973  40.574 227.823  1.00  0.00     0.315 HD
ENDBRANCH  10  11
ENDBRANCH   7  10
ENDBRANCH   1   7
BRANCH   4  14
ATOM     14  O2  UNK     1      -2.249  41.115 223.354  1.00  0.00    -0.361 OA
ATOM     15  H13 UNK     1      -1.701  40.479 222.861  1.00  0.00     0.217 HD
ENDBRANCH   4  14
TORSDOF 5
ENDMDL
MODEL 7
REMARK VINA RESULT:      -4.9      9.525     10.781
REMARK  5 active torsions:
REMARK  status: ('A' for Active; 'I' for Inactive)
REMARK    1  A    between atoms: O1_1  and  C1_4 
REMARK    2  A    between atoms: O2_2  and  C6_9 
REMARK    3  A    between atoms: N1_3  and  C2_5 
REMARK    4  A    between atoms: C1_4  and  C2_5 
REMARK    5  A    between atoms: C1_4  and  C3_6 
ROOT
ATOM      1  C3  UNK     1       2.950  36.747 236.851  1.00  0.00    -0.025 A 
ATOM      2  C4  UNK     1       1.901  37.649 237.023  1.00  0.00     0.046 A 
ATOM      3  C5  UNK     1       2.863  35.753 235.875  1.00  0.00     0.010 A 
ATOM      4  C6  UNK     1       0.764  37.560 236.218  1.00  0.00     0.066 A 
ATOM      5  C7  UNK     1       1.727  35.664 235.071  1.00  0.00     0.003 A 
ATOM      6  C8  UNK     1       0.677  36.566 235.243  1.00  0.00     0.036 A 
ENDROOT
BRANCH   1   7
ATOM      7  C1  UNK     1       4.165  36.843 237.710  1.00  0.00     0.179 C 
BRANCH   7   8
ATOM      8  O1  UNK     1       4.987  37.919 237.238  1.00  0.00    -0.389 OA
ATOM      9  H8  UNK     1       4.701  38.128 236.332  1.00  0.00     0.210 HD
ENDBRANCH   7   8
BRANCH   7  10
ATOM     10  C2  UNK     1       3.813  37.077 239.193  1.00  0.00     0.305 C 
BRANCH  10  11
ATOM     11  N1  UNK     1       3.999  35.865 239.987  1.00  0.00     0.082 N 
ATOM     12  C9  UNK     1       5.401  35.684 240.332  1.00  0.00     0.306 C 
ATOM     13  H6  UNK     1       3.672  35.057 239.458  1.00  0.00     0.315 HD
ENDBRANCH  10  11
ENDBRANCH   7  10
ENDBRANCH   1   7
BRANCH   4  14
ATOM     14  O2  UNK     1      -0.260  38.441 236.385  1.00  0.00    -0.361 OA
ATOM     15  H13 UNK     1      -0.969  38.007 236.892  1.00  0.00     0.217 HD
ENDBRANCH   4  14
TORSDOF 5
ENDMDL
MODEL 8
REMARK VINA RESULT:      -4.9      9.444     11.354
REMARK  5 active torsions:
REMARK  status: ('A' for Active; 'I' for Inactive)
REMARK    1  A    between atoms: O1_1  and  C1_4 
REMARK    2  A    between atoms: O2_2  and  C6_9 
REMARK    3  A    between atoms: N1_3  and  C2_5 
REMARK    4  A    between atoms: C1_4  and  C2_5 
REMARK    5  A    between atoms: C1_4  and  C3_6 
ROOT
ATOM      1  C3  UNK     1       2.484  37.124 237.158  1.00  0.00    -0.025 A 
ATOM      2  C4  UNK     1       2.126  35.843 237.577  1.00  0.00     0.046 A 
ATOM      3  C5  UNK     1       3.713  37.665 237.540  1.00  0.00     0.010 A 
ATOM      4  C6  UNK     1       2.997  35.101 238.376  1.00  0.00     0.066 A 
ATOM      5  C7  UNK     1       4.582  36.924 238.339  1.00  0.00     0.003 A 
ATOM      6  C8  UNK     1       4.225  35.642 238.758  1.00  0.00     0.036 A 
ENDROOT
BRANCH   1   7
ATOM      7  C1  UNK     1       1.554  37.916 236.303  1.00  0.00     0.179 C 
BRANCH   7   8
ATOM      8  O1  UNK     1       1.598  37.403 234.965  1.00  0.00    -0.389 OA
ATOM      9  H8  UNK     1       1.346  38.127 234.367  1.00  0.00     0.210 HD
ENDBRANCH   7   8
BRANCH   7  10
ATOM     10  C2  UNK     1       0.104  37.872 236.823  1.00  0.00     0.305 C 
BRANCH  10  11
ATOM     11  N1  UNK     1      -0.830  37.450 235.781  1.00  0.00     0.082 N 
ATOM     12  C9  UNK     1      -1.572  36.271 236.201  1.00  0.00     0.306 C 
ATOM     13  H6  UNK     1      -0.315  37.241 234.926  1.00  0.00     0.315 HD
ENDBRANCH  10  11
ENDBRANCH   7  10
ENDBRANCH   1   7
BRANCH   4  14
ATOM     14  O2  UNK     1       2.648  33.850 238.784  1.00  0.00    -0.361 OA
ATOM     15  H13 UNK     1       1.729  33.677 238.515  1.00  0.00     0.217 HD
ENDBRANCH   4  14
TORSDOF 5
ENDMDL
MODEL 9
REMARK VINA RESULT:      -4.8      9.722     10.671
REMARK  5 active torsions:
REMARK  status: ('A' for Active; 'I' for Inactive)
REMARK    1  A    between atoms: O1_1  and  C1_4 
REMARK    2  A    between atoms: O2_2  and  C6_9 
REMARK    3  A    between atoms: N1_3  and  C2_5 
REMARK    4  A    between atoms: C1_4  and  C2_5 
REMARK    5  A    between atoms: C1_4  and  C3_6 
ROOT
ATOM      1  C3  UNK     1       1.215  36.579 237.009  1.00  0.00    -0.025 A 
ATOM      2  C4  UNK     1       0.598  37.810 236.790  1.00  0.00     0.046 A 
ATOM      3  C5  UNK     1       0.469  35.402 236.941  1.00  0.00     0.010 A 
ATOM      4  C6  UNK     1      -0.766  37.865 236.502  1.00  0.00     0.066 A 
ATOM      5  C7  UNK     1      -0.894  35.458 236.653  1.00  0.00     0.003 A 
ATOM      6  C8  UNK     1      -1.512  36.689 236.434  1.00  0.00     0.036 A 
ENDROOT
BRANCH   1   7
ATOM      7  C1  UNK     1       2.674  36.519 237.316  1.00  0.00     0.179 C 
BRANCH   7   8
ATOM      8  O1  UNK     1       2.854  35.957 238.622  1.00  0.00    -0.389 OA
ATOM      9  H8  UNK     1       1.973  35.867 239.024  1.00  0.00     0.210 HD
ENDBRANCH   7   8
BRANCH   7  10
ATOM     10  C2  UNK     1       3.453  35.680 236.283  1.00  0.00     0.305 C 
BRANCH  10  11
ATOM     11  N1  UNK     1       3.882  34.401 236.843  1.00  0.00     0.082 N 
ATOM     12  C9  UNK     1       3.516  33.303 235.961  1.00  0.00     0.306 C 
ATOM     13  H6  UNK     1       3.446  34.264 237.755  1.00  0.00     0.315 HD
ENDBRANCH  10  11
ENDBRANCH   7  10
ENDBRANCH   1   7
BRANCH   4  14
ATOM     14  O2  UNK     1      -1.368  39.067 236.288  1.00  0.00    -0.361 OA
ATOM     15  H13 UNK     1      -1.180  39.652 237.043  1.00  0.00     0.217 HD
ENDBRANCH   4  14
TORSDOF 5
ENDMDL
