MODEL 1
REMARK VINA RESULT:      -7.0      0.000      0.000
REMARK  3 active torsions:
REMARK  status: ('A' for Active; 'I' for Inactive)
REMARK    1  A    between atoms: O1_1  and  C5_9 
REMARK    2  A    between atoms: O1_1  and  C23_27 
REMARK    3  A    between atoms: C5_9  and  C17_21 
ROOT
ATOM      1  O3  UNK     1       3.931  37.946 237.735  1.00  0.00    -0.293 OA
ATOM      2  C1  UNK     1      -1.070  34.173 232.067  1.00  0.00    -0.001 C 
ATOM      3  C2  UNK     1      -1.349  35.516 232.783  1.00  0.00     0.002 C 
ATOM      4  C3  UNK     1      -0.828  35.549 234.225  1.00  0.00    -0.004 C 
ATOM      5  C4  UNK     1       0.711  35.313 234.215  1.00  0.00     0.002 C 
ATOM      6  C5  UNK     1      -1.787  34.446 230.720  1.00  0.00     0.138 C 
ATOM      7  C6  UNK     1       1.350  35.373 235.656  1.00  0.00    -0.016 C 
ATOM      8  C7  UNK     1       0.455  33.991 232.007  1.00  0.00     0.013 C 
ATOM      9  C8  UNK     1       1.091  34.041 233.408  1.00  0.00     0.007 C 
ATOM     10  C9  UNK     1      -2.837  35.749 232.536  1.00  0.00     0.009 C 
ATOM     11  C10 UNK     1      -1.149  36.886 234.905  1.00  0.00     0.014 C 
ATOM     12  C11 UNK     1      -3.084  35.183 231.123  1.00  0.00     0.048 C 
ATOM     13  C12 UNK     1      -0.621  36.925 236.345  1.00  0.00     0.012 C 
ATOM     14  C13 UNK     1       0.886  36.657 236.379  1.00  0.00    -0.064 C 
ATOM     15  C14 UNK     1      -1.715  32.952 232.780  1.00  0.00     0.019 C 
ATOM     16  C15 UNK     1       2.900  35.370 235.488  1.00  0.00     0.022 C 
ATOM     17  C16 UNK     1       0.946  34.156 236.519  1.00  0.00     0.020 C 
ATOM     18  C18 UNK     1       3.649  35.790 236.740  1.00  0.00     0.084 C 
ATOM     19  C19 UNK     1       1.741  37.472 237.025  1.00  0.00     0.054 C 
ATOM     20  C20 UNK     1      -1.097  38.225 237.011  1.00  0.00     0.015 C 
ATOM     21  C21 UNK     1       3.178  37.146 237.184  1.00  0.00     0.149 C 
ENDROOT
BRANCH   6  22
ATOM     22  O1  UNK     1      -1.003  35.293 229.884  1.00  0.00    -0.302 OA
BRANCH  22  23
ATOM     23  C23 UNK     1      -1.705  36.110 229.044  1.00  0.00     0.256 C 
ATOM     24  O4  UNK     1      -2.363  35.756 228.076  1.00  0.00    -0.266 OA
ATOM     25  C24 UNK     1      -1.557  37.536 229.483  1.00  0.00     0.126 C 
ENDBRANCH  22  23
ENDBRANCH   6  22
BRANCH   6  26
ATOM     26  C17 UNK     1      -2.040  33.228 229.884  1.00  0.00     0.158 C 
ATOM     27  O2  UNK     1      -1.119  32.601 229.364  1.00  0.00    -0.295 OA
ATOM     28  C22 UNK     1      -3.475  32.810 229.714  1.00  0.00     0.094 C 
ENDBRANCH   6  26
TORSDOF 3
ENDMDL
MODEL 2
REMARK VINA RESULT:      -6.7      1.935      2.510
REMARK  3 active torsions:
REMARK  status: ('A' for Active; 'I' for Inactive)
REMARK    1  A    between atoms: O1_1  and  C5_9 
REMARK    2  A    between atoms: O1_1  and  C23_27 
REMARK    3  A    between atoms: C5_9  and  C17_21 
ROOT
ATOM      1  O3  UNK     1       4.424  37.616 238.709  1.00  0.00    -0.293 OA
ATOM      2  C1  UNK     1       0.392  32.417 233.409  1.00  0.00    -0.001 C 
ATOM      3  C2  UNK     1       0.117  33.928 233.594  1.00  0.00     0.002 C 
ATOM      4  C3  UNK     1       0.310  34.402 235.041  1.00  0.00    -0.004 C 
ATOM      5  C4  UNK     1       1.777  34.116 235.477  1.00  0.00     0.002 C 
ATOM      6  C5  UNK     1       0.023  32.270 231.911  1.00  0.00     0.138 C 
ATOM      7  C6  UNK     1       2.087  34.612 236.943  1.00  0.00    -0.016 C 
ATOM      8  C7  UNK     1       1.862  32.167 233.781  1.00  0.00     0.013 C 
ATOM      9  C8  UNK     1       2.177  32.639 235.212  1.00  0.00     0.007 C 
ATOM     10  C9  UNK     1      -1.244  34.125 232.934  1.00  0.00     0.009 C 
ATOM     11  C10 UNK     1       0.001  35.898 235.183  1.00  0.00     0.014 C 
ATOM     12  C11 UNK     1      -1.238  33.146 231.743  1.00  0.00     0.048 C 
ATOM     13  C12 UNK     1       0.202  36.377 236.627  1.00  0.00     0.012 C 
ATOM     14  C13 UNK     1       1.624  36.077 237.107  1.00  0.00    -0.064 C 
ATOM     15  C14 UNK     1      -0.528  31.515 234.279  1.00  0.00     0.019 C 
ATOM     16  C15 UNK     1       3.625  34.496 237.167  1.00  0.00     0.022 C 
ATOM     17  C16 UNK     1       1.368  33.753 238.008  1.00  0.00     0.020 C 
ATOM     18  C18 UNK     1       4.124  35.267 238.376  1.00  0.00     0.084 C 
ATOM     19  C19 UNK     1       2.404  37.023 237.664  1.00  0.00     0.054 C 
ATOM     20  C20 UNK     1      -0.258  37.839 236.731  1.00  0.00     0.015 C 
ATOM     21  C21 UNK     1       3.724  36.710 238.260  1.00  0.00     0.149 C 
ENDROOT
BRANCH   6  22
ATOM     22  O1  UNK     1       1.063  32.773 231.076  1.00  0.00    -0.302 OA
BRANCH  22  23
ATOM     23  C23 UNK     1       0.652  33.435 229.953  1.00  0.00     0.256 C 
ATOM     24  O4  UNK     1       0.033  32.953 229.016  1.00  0.00    -0.266 OA
ATOM     25  C24 UNK     1       1.071  34.873 230.031  1.00  0.00     0.126 C 
ENDBRANCH  22  23
ENDBRANCH   6  22
BRANCH   6  26
ATOM     26  C17 UNK     1      -0.177  30.858 231.448  1.00  0.00     0.158 C 
ATOM     27  O2  UNK     1       0.754  30.055 231.407  1.00  0.00    -0.295 OA
ATOM     28  C22 UNK     1      -1.571  30.472 231.036  1.00  0.00     0.094 C 
ENDBRANCH   6  26
TORSDOF 3
ENDMDL
MODEL 3
REMARK VINA RESULT:      -6.6      3.138      7.811
REMARK  3 active torsions:
REMARK  status: ('A' for Active; 'I' for Inactive)
REMARK    1  A    between atoms: O1_1  and  C5_9 
REMARK    2  A    between atoms: O1_1  and  C23_27 
REMARK    3  A    between atoms: C5_9  and  C17_21 
ROOT
ATOM      1  O3  UNK     1       2.214  33.892 225.855  1.00  0.00    -0.293 OA
ATOM      2  C1  UNK     1       0.819  33.613 234.183  1.00  0.00    -0.001 C 
ATOM      3  C2  UNK     1       1.079  32.401 233.258  1.00  0.00     0.002 C 
ATOM      4  C3  UNK     1       0.485  32.576 231.854  1.00  0.00    -0.004 C 
ATOM      5  C4  UNK     1       1.111  33.838 231.192  1.00  0.00     0.002 C 
ATOM      6  C5  UNK     1       1.447  33.075 235.494  1.00  0.00     0.138 C 
ATOM      7  C6  UNK     1       0.593  34.078 229.720  1.00  0.00    -0.016 C 
ATOM      8  C7  UNK     1       1.501  34.833 233.545  1.00  0.00     0.013 C 
ATOM      9  C8  UNK     1       1.000  35.084 232.112  1.00  0.00     0.007 C 
ATOM     10  C9  UNK     1       0.632  31.209 234.099  1.00  0.00     0.009 C 
ATOM     11  C10 UNK     1       0.742  31.341 230.981  1.00  0.00     0.014 C 
ATOM     12  C11 UNK     1       1.014  31.593 235.542  1.00  0.00     0.048 C 
ATOM     13  C12 UNK     1       0.156  31.518 229.573  1.00  0.00     0.012 C 
ATOM     14  C13 UNK     1       0.720  32.773 228.903  1.00  0.00    -0.064 C 
ATOM     15  C14 UNK     1      -0.692  33.910 234.395  1.00  0.00     0.019 C 
ATOM     16  C15 UNK     1       1.464  35.206 229.089  1.00  0.00     0.022 C 
ATOM     17  C16 UNK     1      -0.886  34.526 229.694  1.00  0.00     0.020 C 
ATOM     18  C18 UNK     1       1.339  35.299 227.579  1.00  0.00     0.084 C 
ATOM     19  C19 UNK     1       1.260  32.743 227.670  1.00  0.00     0.054 C 
ATOM     20  C20 UNK     1       0.322  30.201 228.800  1.00  0.00     0.015 C 
ATOM     21  C21 UNK     1       1.676  33.974 226.958  1.00  0.00     0.149 C 
ENDROOT
BRANCH   6  22
ATOM     22  O1  UNK     1       2.870  33.151 235.449  1.00  0.00    -0.302 OA
BRANCH  22  23
ATOM     23  C23 UNK     1       3.537  32.164 236.118  1.00  0.00     0.256 C 
ATOM     24  O4  UNK     1       3.602  32.032 237.332  1.00  0.00    -0.266 OA
ATOM     25  C24 UNK     1       4.192  31.239 235.137  1.00  0.00     0.126 C 
ENDBRANCH  22  23
ENDBRANCH   6  22
BRANCH   6  26
ATOM     26  C17 UNK     1       1.072  33.837 236.729  1.00  0.00     0.158 C 
ATOM     27  O2  UNK     1       1.473  34.983 236.927  1.00  0.00    -0.295 OA
ATOM     28  C22 UNK     1       0.182  33.131 237.715  1.00  0.00     0.094 C 
ENDBRANCH   6  26
TORSDOF 3
ENDMDL
MODEL 4
REMARK VINA RESULT:      -6.4      2.178      7.160
REMARK  3 active torsions:
REMARK  status: ('A' for Active; 'I' for Inactive)
REMARK    1  A    between atoms: O1_1  and  C5_9 
REMARK    2  A    between atoms: O1_1  and  C23_27 
REMARK    3  A    between atoms: C5_9  and  C17_21 
ROOT
ATOM      1  O3  UNK     1      -2.082  38.373 227.597  1.00  0.00    -0.293 OA
ATOM      2  C1  UNK     1      -0.652  34.321 234.871  1.00  0.00    -0.001 C 
ATOM      3  C2  UNK     1       0.418  34.769 233.847  1.00  0.00     0.002 C 
ATOM      4  C3  UNK     1      -0.065  34.681 232.394  1.00  0.00    -0.004 C 
ATOM      5  C4  UNK     1      -1.317  35.590 232.219  1.00  0.00     0.002 C 
ATOM      6  C5  UNK     1       0.175  34.441 236.176  1.00  0.00     0.138 C 
ATOM      7  C6  UNK     1      -1.863  35.601 230.739  1.00  0.00    -0.016 C 
ATOM      8  C7  UNK     1      -1.851  35.271 234.728  1.00  0.00     0.013 C 
ATOM      9  C8  UNK     1      -2.400  35.287 233.290  1.00  0.00     0.007 C 
ATOM     10  C9  UNK     1       1.656  33.976 234.257  1.00  0.00     0.009 C 
ATOM     11  C10 UNK     1       1.035  35.108 231.413  1.00  0.00     0.014 C 
ATOM     12  C11 UNK     1       1.569  33.897 235.795  1.00  0.00     0.048 C 
ATOM     13  C12 UNK     1       0.552  35.030 229.959  1.00  0.00     0.012 C 
ATOM     14  C13 UNK     1      -0.704  35.881 229.757  1.00  0.00    -0.064 C 
ATOM     15  C14 UNK     1      -1.120  32.853 234.666  1.00  0.00     0.019 C 
ATOM     16  C15 UNK     1      -2.945  36.720 230.642  1.00  0.00     0.022 C 
ATOM     17  C16 UNK     1      -2.514  34.253 230.352  1.00  0.00     0.020 C 
ATOM     18  C18 UNK     1      -3.299  37.102 229.216  1.00  0.00     0.084 C 
ATOM     19  C19 UNK     1      -0.799  36.789 228.767  1.00  0.00     0.054 C 
ATOM     20  C20 UNK     1       1.736  35.331 229.028  1.00  0.00     0.015 C 
ATOM     21  C21 UNK     1      -2.058  37.514 228.476  1.00  0.00     0.149 C 
ENDROOT
BRANCH   6  22
ATOM     22  O1  UNK     1       0.294  35.802 236.584  1.00  0.00    -0.302 OA
BRANCH  22  23
ATOM     23  C23 UNK     1       1.535  36.187 237.007  1.00  0.00     0.256 C 
ATOM     24  O4  UNK     1       2.201  35.645 237.877  1.00  0.00    -0.266 OA
ATOM     25  C24 UNK     1       1.981  37.393 236.236  1.00  0.00     0.126 C 
ENDBRANCH  22  23
ENDBRANCH   6  22
BRANCH   6  26
ATOM     26  C17 UNK     1      -0.421  33.747 237.364  1.00  0.00     0.158 C 
ATOM     27  O2  UNK     1      -1.509  34.084 237.829  1.00  0.00    -0.295 OA
ATOM     28  C22 UNK     1       0.376  32.619 237.959  1.00  0.00     0.094 C 
ENDBRANCH   6  26
TORSDOF 3
ENDMDL
MODEL 5
REMARK VINA RESULT:      -6.1      1.771      2.412
REMARK  3 active torsions:
REMARK  status: ('A' for Active; 'I' for Inactive)
REMARK    1  A    between atoms: O1_1  and  C5_9 
REMARK    2  A    between atoms: O1_1  and  C23_27 
REMARK    3  A    between atoms: C5_9  and  C17_21 
ROOT
ATOM      1  O3  UNK     1       0.853  37.897 237.653  1.00  0.00    -0.293 OA
ATOM      2  C1  UNK     1      -0.135  33.973 230.237  1.00  0.00    -0.001 C 
ATOM      3  C2  UNK     1      -1.249  34.278 231.266  1.00  0.00     0.002 C 
ATOM      4  C3  UNK     1      -0.766  34.189 232.720  1.00  0.00    -0.004 C 
ATOM      5  C4  UNK     1       0.389  35.211 232.934  1.00  0.00     0.002 C 
ATOM      6  C5  UNK     1      -0.964  34.056 228.930  1.00  0.00     0.138 C 
ATOM      7  C6  UNK     1       0.925  35.226 234.418  1.00  0.00    -0.016 C 
ATOM      8  C7  UNK     1       0.963  35.033 230.420  1.00  0.00     0.013 C 
ATOM      9  C8  UNK     1       1.501  35.054 231.862  1.00  0.00     0.007 C 
ATOM     10  C9  UNK     1      -2.400  33.381 230.821  1.00  0.00     0.009 C 
ATOM     11  C10 UNK     1      -1.907  34.470 233.706  1.00  0.00     0.014 C 
ATOM     12  C11 UNK     1      -2.299  33.363 229.282  1.00  0.00     0.048 C 
ATOM     13  C12 UNK     1      -1.424  34.391 235.160  1.00  0.00     0.012 C 
ATOM     14  C13 UNK     1      -0.261  35.356 235.400  1.00  0.00    -0.064 C 
ATOM     15  C14 UNK     1       0.476  32.553 230.396  1.00  0.00     0.019 C 
ATOM     16  C15 UNK     1       1.889  36.443 234.561  1.00  0.00     0.022 C 
ATOM     17  C16 UNK     1       1.705  33.937 234.765  1.00  0.00     0.020 C 
ATOM     18  C18 UNK     1       2.198  36.809 236.002  1.00  0.00     0.084 C 
ATOM     19  C19 UNK     1      -0.261  36.234 236.421  1.00  0.00     0.054 C 
ATOM     20  C20 UNK     1      -2.636  34.540 236.092  1.00  0.00     0.015 C 
ATOM     21  C21 UNK     1       0.919  37.070 236.746  1.00  0.00     0.149 C 
ENDROOT
BRANCH   6  22
ATOM     22  O1  UNK     1      -1.216  35.411 228.567  1.00  0.00    -0.302 OA
BRANCH  22  23
ATOM     23  C23 UNK     1      -2.427  35.651 227.981  1.00  0.00     0.256 C 
ATOM     24  O4  UNK     1      -2.808  35.212 226.905  1.00  0.00    -0.266 OA
ATOM     25  C24 UNK     1      -3.247  36.547 228.860  1.00  0.00     0.126 C 
ENDBRANCH  22  23
ENDBRANCH   6  22
BRANCH   6  26
ATOM     26  C17 UNK     1      -0.297  33.466 227.724  1.00  0.00     0.158 C 
ATOM     27  O2  UNK     1       0.691  33.990 227.211  1.00  0.00    -0.295 OA
ATOM     28  C22 UNK     1      -0.894  32.200 227.172  1.00  0.00     0.094 C 
ENDBRANCH   6  26
TORSDOF 3
ENDMDL
MODEL 6
REMARK VINA RESULT:      -6.0      2.821      7.193
REMARK  3 active torsions:
REMARK  status: ('A' for Active; 'I' for Inactive)
REMARK    1  A    between atoms: O1_1  and  C5_9 
REMARK    2  A    between atoms: O1_1  and  C23_27 
REMARK    3  A    between atoms: C5_9  and  C17_21 
ROOT
ATOM      1  O3  UNK     1      -1.112  32.739 225.588  1.00  0.00    -0.293 OA
ATOM      2  C1  UNK     1       0.307  34.968 233.612  1.00  0.00    -0.001 C 
ATOM      3  C2  UNK     1      -0.877  35.430 232.730  1.00  0.00     0.002 C 
ATOM      4  C3  UNK     1      -0.495  35.606 231.254  1.00  0.00    -0.004 C 
ATOM      5  C4  UNK     1       0.025  34.247 230.699  1.00  0.00     0.002 C 
ATOM      6  C5  UNK     1      -0.384  34.985 234.999  1.00  0.00     0.138 C 
ATOM      7  C6  UNK     1       0.403  34.316 229.169  1.00  0.00    -0.016 C 
ATOM      8  C7  UNK     1       0.762  33.596 233.090  1.00  0.00     0.013 C 
ATOM      9  C8  UNK     1       1.141  33.649 231.599  1.00  0.00     0.007 C 
ATOM     10  C9  UNK     1      -1.440  36.628 233.489  1.00  0.00     0.009 C 
ATOM     11  C10 UNK     1      -1.690  36.090 230.423  1.00  0.00     0.014 C 
ATOM     12  C11 UNK     1      -1.252  36.263 234.975  1.00  0.00     0.048 C 
ATOM     13  C12 UNK     1      -1.313  36.258 228.944  1.00  0.00     0.012 C 
ATOM     14  C13 UNK     1      -0.759  34.951 228.373  1.00  0.00    -0.064 C 
ATOM     15  C14 UNK     1       1.506  35.957 233.598  1.00  0.00     0.019 C 
ATOM     16  C15 UNK     1       0.668  32.859 228.681  1.00  0.00     0.022 C 
ATOM     17  C16 UNK     1       1.677  35.156 228.924  1.00  0.00     0.020 C 
ATOM     18  C18 UNK     1       0.682  32.716 227.169  1.00  0.00     0.084 C 
ATOM     19  C19 UNK     1      -1.234  34.412 227.234  1.00  0.00     0.054 C 
ATOM     20  C20 UNK     1      -2.505  36.877 228.198  1.00  0.00     0.015 C 
ATOM     21  C21 UNK     1      -0.610  33.228 226.598  1.00  0.00     0.149 C 
ENDROOT
BRANCH   6  22
ATOM     22  O1  UNK     1      -1.225  33.846 235.168  1.00  0.00    -0.302 OA
BRANCH  22  23
ATOM     23  C23 UNK     1      -2.392  34.067 235.843  1.00  0.00     0.256 C 
ATOM     24  O4  UNK     1      -2.499  34.351 237.027  1.00  0.00    -0.266 OA
ATOM     25  C24 UNK     1      -3.554  33.911 234.908  1.00  0.00     0.126 C 
ENDBRANCH  22  23
ENDBRANCH   6  22
BRANCH   6  26
ATOM     26  C17 UNK     1       0.552  34.934 236.169  1.00  0.00     0.158 C 
ATOM     27  O2  UNK     1       1.183  33.915 236.445  1.00  0.00    -0.295 OA
ATOM     28  C22 UNK     1       0.682  36.189 236.988  1.00  0.00     0.094 C 
ENDBRANCH   6  26
TORSDOF 3
ENDMDL
MODEL 7
REMARK VINA RESULT:      -6.0      2.838      7.016
REMARK  3 active torsions:
REMARK  status: ('A' for Active; 'I' for Inactive)
REMARK    1  A    between atoms: O1_1  and  C5_9 
REMARK    2  A    between atoms: O1_1  and  C23_27 
REMARK    3  A    between atoms: C5_9  and  C17_21 
ROOT
ATOM      1  O3  UNK     1       0.997  40.162 226.664  1.00  0.00    -0.293 OA
ATOM      2  C1  UNK     1      -1.256  34.717 232.717  1.00  0.00    -0.001 C 
ATOM      3  C2  UNK     1       0.092  34.735 231.958  1.00  0.00     0.002 C 
ATOM      4  C3  UNK     1      -0.048  35.167 230.493  1.00  0.00    -0.004 C 
ATOM      5  C4  UNK     1      -0.656  36.599 230.441  1.00  0.00     0.002 C 
ATOM      6  C5  UNK     1      -0.775  34.165 234.083  1.00  0.00     0.138 C 
ATOM      7  C6  UNK     1      -0.797  37.151 228.970  1.00  0.00    -0.016 C 
ATOM      8  C7  UNK     1      -1.806  36.152 232.713  1.00  0.00     0.013 C 
ATOM      9  C8  UNK     1      -1.957  36.701 231.283  1.00  0.00     0.007 C 
ATOM     10  C9  UNK     1       0.691  33.365 232.265  1.00  0.00     0.009 C 
ATOM     11  C10 UNK     1       1.306  35.143 229.772  1.00  0.00     0.014 C 
ATOM     12  C11 UNK     1       0.246  33.067 233.711  1.00  0.00     0.048 C 
ATOM     13  C12 UNK     1       1.171  35.584 228.308  1.00  0.00     0.012 C 
ATOM     14  C13 UNK     1       0.539  36.975 228.216  1.00  0.00    -0.064 C 
ATOM     15  C14 UNK     1      -2.302  33.754 232.088  1.00  0.00     0.019 C 
ATOM     16  C15 UNK     1      -1.177  38.661 229.065  1.00  0.00     0.022 C 
ATOM     17  C16 UNK     1      -1.903  36.415 228.180  1.00  0.00     0.020 C 
ATOM     18  C18 UNK     1      -0.992  39.418 227.762  1.00  0.00     0.084 C 
ATOM     19  C19 UNK     1       1.098  37.966 227.495  1.00  0.00     0.054 C 
ATOM     20  C20 UNK     1       2.527  35.404 227.611  1.00  0.00     0.015 C 
ATOM     21  C21 UNK     1       0.424  39.268 227.283  1.00  0.00     0.149 C 
ENDROOT
BRANCH   6  22
ATOM     22  O1  UNK     1      -0.123  35.178 234.844  1.00  0.00    -0.302 OA
BRANCH  22  23
ATOM     23  C23 UNK     1       0.897  34.751 235.648  1.00  0.00     0.256 C 
ATOM     24  O4  UNK     1       0.787  34.047 236.641  1.00  0.00    -0.266 OA
ATOM     25  C24 UNK     1       2.203  35.273 235.129  1.00  0.00     0.126 C 
ENDBRANCH  22  23
ENDBRANCH   6  22
BRANCH   6  26
ATOM     26  C17 UNK     1      -1.868  33.669 234.981  1.00  0.00     0.158 C 
ATOM     27  O2  UNK     1      -2.688  34.437 235.483  1.00  0.00    -0.295 OA
ATOM     28  C22 UNK     1      -1.913  32.188 235.239  1.00  0.00     0.094 C 
ENDBRANCH   6  26
TORSDOF 3
ENDMDL
MODEL 8
REMARK VINA RESULT:      -5.9      2.282      7.455
REMARK  3 active torsions:
REMARK  status: ('A' for Active; 'I' for Inactive)
REMARK    1  A    between atoms: O1_1  and  C5_9 
REMARK    2  A    between atoms: O1_1  and  C23_27 
REMARK    3  A    between atoms: C5_9  and  C17_21 
ROOT
ATOM      1  O3  UNK     1      -2.886  31.962 228.069  1.00  0.00    -0.293 OA
ATOM      2  C1  UNK     1       1.287  33.844 235.170  1.00  0.00    -0.001 C 
ATOM      3  C2  UNK     1       1.168  34.739 233.915  1.00  0.00     0.002 C 
ATOM      4  C3  UNK     1       1.142  33.940 232.605  1.00  0.00    -0.004 C 
ATOM      5  C4  UNK     1      -0.074  32.968 232.628  1.00  0.00     0.002 C 
ATOM      6  C5  UNK     1       1.378  34.941 236.261  1.00  0.00     0.138 C 
ATOM      7  C6  UNK     1      -0.211  32.129 231.298  1.00  0.00    -0.016 C 
ATOM      8  C7  UNK     1       0.045  32.939 235.210  1.00  0.00     0.013 C 
ATOM      9  C8  UNK     1      -0.098  32.109 233.922  1.00  0.00     0.007 C 
ATOM     10  C9  UNK     1       2.264  35.781 234.116  1.00  0.00     0.009 C 
ATOM     11  C10 UNK     1       1.051  34.868 231.387  1.00  0.00     0.014 C 
ATOM     12  C11 UNK     1       2.292  36.020 235.639  1.00  0.00     0.048 C 
ATOM     13  C12 UNK     1       1.016  34.070 230.076  1.00  0.00     0.012 C 
ATOM     14  C13 UNK     1      -0.145  33.073 230.077  1.00  0.00    -0.064 C 
ATOM     15  C14 UNK     1       2.572  32.969 235.181  1.00  0.00     0.019 C 
ATOM     16  C15 UNK     1      -1.583  31.390 231.344  1.00  0.00     0.022 C 
ATOM     17  C16 UNK     1       0.911  31.075 231.160  1.00  0.00     0.020 C 
ATOM     18  C18 UNK     1      -2.025  30.842 229.999  1.00  0.00     0.084 C 
ATOM     19  C19 UNK     1      -1.028  33.005 229.062  1.00  0.00     0.054 C 
ATOM     20  C20 UNK     1       1.068  35.054 228.897  1.00  0.00     0.015 C 
ATOM     21  C21 UNK     1      -2.067  31.952 228.987  1.00  0.00     0.149 C 
ENDROOT
BRANCH   6  22
ATOM     22  O1  UNK     1       0.096  35.505 236.529  1.00  0.00    -0.302 OA
BRANCH  22  23
ATOM     23  C23 UNK     1       0.081  36.848 236.777  1.00  0.00     0.256 C 
ATOM     24  O4  UNK     1       0.872  37.462 237.479  1.00  0.00    -0.266 OA
ATOM     25  C24 UNK     1      -1.066  37.484 236.050  1.00  0.00     0.126 C 
ENDBRANCH  22  23
ENDBRANCH   6  22
BRANCH   6  26
ATOM     26  C17 UNK     1       1.861  34.462 237.596  1.00  0.00     0.158 C 
ATOM     27  O2  UNK     1       1.240  33.620 238.243  1.00  0.00    -0.295 OA
ATOM     28  C22 UNK     1       3.143  35.061 238.107  1.00  0.00     0.094 C 
ENDBRANCH   6  26
TORSDOF 3
ENDMDL
MODEL 9
REMARK VINA RESULT:      -5.8      2.767      3.641
REMARK  3 active torsions:
REMARK  status: ('A' for Active; 'I' for Inactive)
REMARK    1  A    between atoms: O1_1  and  C5_9 
REMARK    2  A    between atoms: O1_1  and  C23_27 
REMARK    3  A    between atoms: C5_9  and  C17_21 
ROOT
ATOM      1  O3  UNK     1       5.816  31.538 238.038  1.00  0.00    -0.293 OA
ATOM      2  C1  UNK     1       0.224  33.100 231.900  1.00  0.00    -0.001 C 
ATOM      3  C2  UNK     1       0.984  34.156 232.736  1.00  0.00     0.002 C 
ATOM      4  C3  UNK     1       1.220  33.720 234.188  1.00  0.00    -0.004 C 
ATOM      5  C4  UNK     1       2.051  32.404 234.194  1.00  0.00     0.002 C 
ATOM      6  C5  UNK     1       0.082  33.879 230.568  1.00  0.00     0.138 C 
ATOM      7  C6  UNK     1       2.384  31.897 235.651  1.00  0.00    -0.016 C 
ATOM      8  C7  UNK     1       1.092  31.832 231.863  1.00  0.00     0.013 C 
ATOM      9  C8  UNK     1       1.419  31.321 233.277  1.00  0.00     0.007 C 
ATOM     10  C9  UNK     1       0.207  35.443 232.474  1.00  0.00     0.009 C 
ATOM     11  C10 UNK     1       1.950  34.807 234.986  1.00  0.00     0.014 C 
ATOM     12  C11 UNK     1      -0.251  35.322 231.007  1.00  0.00     0.048 C 
ATOM     13  C12 UNK     1       2.195  34.370 236.437  1.00  0.00     0.012 C 
ATOM     14  C13 UNK     1       2.977  33.055 236.483  1.00  0.00    -0.064 C 
ATOM     15  C14 UNK     1      -1.179  32.757 232.474  1.00  0.00     0.019 C 
ATOM     16  C15 UNK     1       3.412  30.731 235.524  1.00  0.00     0.022 C 
ATOM     17  C16 UNK     1       1.128  31.367 236.381  1.00  0.00     0.020 C 
ATOM     18  C18 UNK     1       4.103  30.385 236.830  1.00  0.00     0.084 C 
ATOM     19  C19 UNK     1       4.090  32.913 237.228  1.00  0.00     0.054 C 
ATOM     20  C20 UNK     1       2.798  35.549 237.214  1.00  0.00     0.015 C 
ATOM     21  C21 UNK     1       4.772  31.607 237.392  1.00  0.00     0.149 C 
ENDROOT
BRANCH   6  22
ATOM     22  O1  UNK     1       1.307  33.878 229.840  1.00  0.00    -0.302 OA
BRANCH  22  23
ATOM     23  C23 UNK     1       1.373  34.751 228.791  1.00  0.00     0.256 C 
ATOM     24  O4  UNK     1       1.049  35.930 228.811  1.00  0.00    -0.266 OA
ATOM     25  C24 UNK     1       1.913  34.049 227.581  1.00  0.00     0.126 C 
ENDBRANCH  22  23
ENDBRANCH   6  22
BRANCH   6  26
ATOM     26  C17 UNK     1      -0.922  33.311 229.611  1.00  0.00     0.158 C 
ATOM     27  O2  UNK     1      -0.767  32.204 229.097  1.00  0.00    -0.295 OA
ATOM     28  C22 UNK     1      -2.127  34.159 229.311  1.00  0.00     0.094 C 
ENDBRANCH   6  26
TORSDOF 3
ENDMDL
