MODEL 1
REMARK VINA RESULT:      -8.1      0.000      0.000
REMARK  6 active torsions:
REMARK  status: ('A' for Active; 'I' for Inactive)
REMARK       I    between atoms: N1_5  and  C6_17 
REMARK    1  A    between atoms: N2_6  and  C5_16 
REMARK       I    between atoms: N2_6  and  C11_22 
REMARK       I    between atoms: N4_8  and  C8_19 
REMARK    2  A    between atoms: C1_12  and  C8_19 
REMARK    3  A    between atoms: C5_16  and  C6_17 
REMARK    4  A    between atoms: C5_16  and  C9_20 
REMARK    5  A    between atoms: C7_18  and  C11_22 
REMARK    6  A    between atoms: C9_20  and  C14_25 
ROOT
ATOM      1  C5  UNK     1      -1.261  39.562 228.111  1.00  0.00     0.182 C 
ENDROOT
BRANCH   1   2
ATOM      2  N2  UNK     1      -1.327  38.874 229.369  1.00  0.00    -0.346 N 
ATOM      3  C11 UNK     1      -1.514  37.502 229.484  1.00  0.00     0.241 C 
ATOM      4  O3  UNK     1      -1.643  36.717 228.548  1.00  0.00    -0.271 OA
ATOM      5  H14 UNK     1      -1.197  39.421 230.215  1.00  0.00     0.163 HD
BRANCH   3   6
ATOM      6  C7  UNK     1      -1.520  37.041 230.906  1.00  0.00     0.177 C 
ATOM      7  N3  UNK     1      -2.874  36.680 231.218  1.00  0.00    -0.348 N 
ATOM      8  C13 UNK     1      -3.088  35.306 231.196  1.00  0.00     0.218 C 
ATOM      9  H17 UNK     1      -3.611  37.354 231.397  1.00  0.00     0.163 HD
ATOM     10  O4  UNK     1      -4.143  34.719 231.382  1.00  0.00    -0.274 OA
ATOM     11  C12 UNK     1      -1.773  34.650 230.850  1.00  0.00     0.105 C 
ATOM     12  C10 UNK     1      -0.746  35.751 231.110  1.00  0.00     0.044 C 
ENDBRANCH   3   6
ENDBRANCH   1   2
BRANCH   1  13
ATOM     13  C6  UNK     1      -0.390  40.756 228.408  1.00  0.00     0.243 C 
ATOM     14  O1  UNK     1      -0.859  41.741 228.980  1.00  0.00    -0.271 OA
ATOM     15  N1  UNK     1       0.927  40.654 227.987  1.00  0.00    -0.337 N 
ATOM     16  C1  UNK     1       1.938  41.644 228.334  1.00  0.00     0.179 C 
ATOM     17  C3  UNK     1       1.523  39.508 227.307  1.00  0.00     0.127 C 
ATOM     18  C2  UNK     1       3.268  40.940 228.092  1.00  0.00     0.037 C 
ATOM     19  C4  UNK     1       2.944  39.943 226.982  1.00  0.00     0.022 C 
BRANCH  16  20
ATOM     20  C8  UNK     1       1.750  42.811 227.413  1.00  0.00     0.238 C 
ATOM     21  O2  UNK     1       1.573  43.952 227.834  1.00  0.00    -0.271 OA
ATOM     22  N4  UNK     1       1.777  42.476 226.081  1.00  0.00    -0.368 N 
ATOM     23  H18 UNK     1       1.653  43.182 225.363  1.00  0.00     0.159 HD
ATOM     24  H19 UNK     1       1.937  41.526 225.761  1.00  0.00     0.159 HD
ENDBRANCH  16  20
ENDBRANCH   1  13
BRANCH   1  25
ATOM     25  C9  UNK     1      -2.622  40.016 227.597  1.00  0.00     0.093 C 
BRANCH  25  26
ATOM     26  C14 UNK     1      -2.591  40.319 226.118  1.00  0.00     0.028 A 
ATOM     27  N5  UNK     1      -3.438  39.728 225.224  1.00  0.00    -0.354 N 
ATOM     28  C16 UNK     1      -3.141  40.226 223.986  1.00  0.00     0.180 A 
ATOM     29  H20 UNK     1      -4.155  39.046 225.436  1.00  0.00     0.166 HD
ATOM     30  N6  UNK     1      -2.158  41.098 224.034  1.00  0.00    -0.360 N 
ATOM     31  C15 UNK     1      -1.810  41.161 225.360  1.00  0.00     0.114 A 
ATOM     32  H6  UNK     1      -1.746  41.614 223.257  1.00  0.00     0.166 HD
ENDBRANCH  25  26
ENDBRANCH   1  25
TORSDOF 6
ENDMDL
MODEL 2
REMARK VINA RESULT:      -7.3      2.283      6.780
REMARK  6 active torsions:
REMARK  status: ('A' for Active; 'I' for Inactive)
REMARK       I    between atoms: N1_5  and  C6_17 
REMARK    1  A    between atoms: N2_6  and  C5_16 
REMARK       I    between atoms: N2_6  and  C11_22 
REMARK       I    between atoms: N4_8  and  C8_19 
REMARK    2  A    between atoms: C1_12  and  C8_19 
REMARK    3  A    between atoms: C5_16  and  C6_17 
REMARK    4  A    between atoms: C5_16  and  C9_20 
REMARK    5  A    between atoms: C7_18  and  C11_22 
REMARK    6  A    between atoms: C9_20  and  C14_25 
ROOT
ATOM      1  C5  UNK     1      -1.873  40.048 226.639  1.00  0.00     0.182 C 
ENDROOT
BRANCH   1   2
ATOM      2  N2  UNK     1      -0.573  40.614 226.414  1.00  0.00    -0.346 N 
ATOM      3  C11 UNK     1       0.606  40.024 226.851  1.00  0.00     0.241 C 
ATOM      4  O3  UNK     1       0.690  38.967 227.471  1.00  0.00    -0.271 OA
ATOM      5  H14 UNK     1      -0.518  41.475 225.877  1.00  0.00     0.163 HD
BRANCH   3   6
ATOM      6  C7  UNK     1       1.819  40.808 226.463  1.00  0.00     0.177 C 
ATOM      7  N3  UNK     1       1.428  42.189 226.441  1.00  0.00    -0.348 N 
ATOM      8  C13 UNK     1       1.836  42.887 227.572  1.00  0.00     0.218 C 
ATOM      9  H17 UNK     1       0.876  42.608 225.699  1.00  0.00     0.163 HD
ATOM     10  O4  UNK     1       1.611  44.057 227.840  1.00  0.00    -0.274 OA
ATOM     11  C12 UNK     1       2.583  41.918 228.455  1.00  0.00     0.105 C 
ATOM     12  C10 UNK     1       2.912  40.759 227.514  1.00  0.00     0.044 C 
ENDBRANCH   3   6
ENDBRANCH   1   2
BRANCH   1  13
ATOM     13  C6  UNK     1      -2.776  40.883 225.767  1.00  0.00     0.243 C 
ATOM     14  O1  UNK     1      -2.732  42.113 225.823  1.00  0.00    -0.271 OA
ATOM     15  N1  UNK     1      -3.632  40.173 224.939  1.00  0.00    -0.337 N 
ATOM     16  C1  UNK     1      -4.451  40.818 223.922  1.00  0.00     0.179 C 
ATOM     17  C3  UNK     1      -3.716  38.718 224.840  1.00  0.00     0.127 C 
ATOM     18  C2  UNK     1      -4.850  39.692 222.975  1.00  0.00     0.037 C 
ATOM     19  C4  UNK     1      -4.864  38.459 223.876  1.00  0.00     0.022 C 
BRANCH  16  20
ATOM     20  C8  UNK     1      -5.640  41.406 224.620  1.00  0.00     0.238 C 
ATOM     21  O2  UNK     1      -6.514  40.704 225.125  1.00  0.00    -0.271 OA
ATOM     22  N4  UNK     1      -5.661  42.780 224.617  1.00  0.00    -0.368 N 
ATOM     23  H18 UNK     1      -6.422  43.291 225.054  1.00  0.00     0.159 HD
ATOM     24  H19 UNK     1      -4.920  43.335 224.201  1.00  0.00     0.159 HD
ENDBRANCH  16  20
ENDBRANCH   1  13
BRANCH   1  25
ATOM     25  C9  UNK     1      -2.323  40.126 228.092  1.00  0.00     0.093 C 
BRANCH  25  26
ATOM     26  C14 UNK     1      -2.495  38.755 228.700  1.00  0.00     0.028 A 
ATOM     27  N5  UNK     1      -1.586  38.208 229.562  1.00  0.00    -0.354 N 
ATOM     28  C16 UNK     1      -2.049  36.972 229.917  1.00  0.00     0.180 A 
ATOM     29  H20 UNK     1      -0.727  38.638 229.881  1.00  0.00     0.166 HD
ATOM     30  N6  UNK     1      -3.196  36.695 229.337  1.00  0.00    -0.360 N 
ATOM     31  C15 UNK     1      -3.480  37.802 228.577  1.00  0.00     0.114 A 
ATOM     32  H6  UNK     1      -3.752  35.845 229.432  1.00  0.00     0.166 HD
ENDBRANCH  25  26
ENDBRANCH   1  25
TORSDOF 6
ENDMDL
MODEL 3
REMARK VINA RESULT:      -7.3      6.873     10.956
REMARK  6 active torsions:
REMARK  status: ('A' for Active; 'I' for Inactive)
REMARK       I    between atoms: N1_5  and  C6_17 
REMARK    1  A    between atoms: N2_6  and  C5_16 
REMARK       I    between atoms: N2_6  and  C11_22 
REMARK       I    between atoms: N4_8  and  C8_19 
REMARK    2  A    between atoms: C1_12  and  C8_19 
REMARK    3  A    between atoms: C5_16  and  C6_17 
REMARK    4  A    between atoms: C5_16  and  C9_20 
REMARK    5  A    between atoms: C7_18  and  C11_22 
REMARK    6  A    between atoms: C9_20  and  C14_25 
ROOT
ATOM      1  C5  UNK     1       1.635  36.362 235.715  1.00  0.00     0.182 C 
ENDROOT
BRANCH   1   2
ATOM      2  N2  UNK     1       0.578  36.563 234.766  1.00  0.00    -0.346 N 
ATOM      3  C11 UNK     1       0.544  35.958 233.515  1.00  0.00     0.241 C 
ATOM      4  O3  UNK     1       1.393  35.191 233.069  1.00  0.00    -0.271 OA
ATOM      5  H14 UNK     1      -0.201  37.154 235.043  1.00  0.00     0.163 HD
BRANCH   3   6
ATOM      6  C7  UNK     1      -0.681  36.318 232.736  1.00  0.00     0.177 C 
ATOM      7  N3  UNK     1      -0.892  35.262 231.787  1.00  0.00    -0.348 N 
ATOM      8  C13 UNK     1      -1.892  34.377 232.174  1.00  0.00     0.218 C 
ATOM      9  H17 UNK     1      -0.345  35.145 230.940  1.00  0.00     0.163 HD
ATOM     10  O4  UNK     1      -2.255  33.369 231.587  1.00  0.00    -0.274 OA
ATOM     11  C12 UNK     1      -2.432  34.857 233.499  1.00  0.00     0.105 C 
ATOM     12  C10 UNK     1      -1.941  36.302 233.581  1.00  0.00     0.044 C 
ENDBRANCH   3   6
ENDBRANCH   1   2
BRANCH   1  13
ATOM     13  C6  UNK     1       1.164  35.178 236.521  1.00  0.00     0.243 C 
ATOM     14  O1  UNK     1       0.055  35.192 237.058  1.00  0.00    -0.271 OA
ATOM     15  N1  UNK     1       2.058  34.122 236.610  1.00  0.00    -0.337 N 
ATOM     16  C1  UNK     1       1.702  32.844 237.211  1.00  0.00     0.179 C 
ATOM     17  C3  UNK     1       3.379  34.064 235.991  1.00  0.00     0.127 C 
ATOM     18  C2  UNK     1       2.753  31.867 236.696  1.00  0.00     0.037 C 
ATOM     19  C4  UNK     1       3.979  32.751 236.474  1.00  0.00     0.022 C 
BRANCH  16  20
ATOM     20  C8  UNK     1       1.782  33.016 238.697  1.00  0.00     0.238 C 
ATOM     21  O2  UNK     1       2.556  33.814 239.221  1.00  0.00    -0.271 OA
ATOM     22  N4  UNK     1       0.934  32.193 239.398  1.00  0.00    -0.368 N 
ATOM     23  H18 UNK     1       0.905  32.215 240.412  1.00  0.00     0.159 HD
ATOM     24  H19 UNK     1       0.296  31.550 238.939  1.00  0.00     0.159 HD
ENDBRANCH  16  20
ENDBRANCH   1  13
BRANCH   1  25
ATOM     25  C9  UNK     1       1.867  37.561 236.625  1.00  0.00     0.093 C 
BRANCH  25  26
ATOM     26  C14 UNK     1       3.061  37.358 237.528  1.00  0.00     0.028 A 
ATOM     27  N5  UNK     1       2.942  36.996 238.841  1.00  0.00    -0.354 N 
ATOM     28  C16 UNK     1       4.204  36.900 239.356  1.00  0.00     0.180 A 
ATOM     29  H20 UNK     1       2.079  36.829 239.342  1.00  0.00     0.166 HD
ATOM     30  N6  UNK     1       5.121  37.177 238.455  1.00  0.00    -0.360 N 
ATOM     31  C15 UNK     1       4.415  37.463 237.313  1.00  0.00     0.114 A 
ATOM     32  H6  UNK     1       6.134  37.178 238.578  1.00  0.00     0.166 HD
ENDBRANCH  25  26
ENDBRANCH   1  25
TORSDOF 6
ENDMDL
MODEL 4
REMARK VINA RESULT:      -7.0      8.688     10.571
REMARK  6 active torsions:
REMARK  status: ('A' for Active; 'I' for Inactive)
REMARK       I    between atoms: N1_5  and  C6_17 
REMARK    1  A    between atoms: N2_6  and  C5_16 
REMARK       I    between atoms: N2_6  and  C11_22 
REMARK       I    between atoms: N4_8  and  C8_19 
REMARK    2  A    between atoms: C1_12  and  C8_19 
REMARK    3  A    between atoms: C5_16  and  C6_17 
REMARK    4  A    between atoms: C5_16  and  C9_20 
REMARK    5  A    between atoms: C7_18  and  C11_22 
REMARK    6  A    between atoms: C9_20  and  C14_25 
ROOT
ATOM      1  C5  UNK     1       2.196  34.172 235.751  1.00  0.00     0.182 C 
ENDROOT
BRANCH   1   2
ATOM      2  N2  UNK     1       2.025  33.392 234.558  1.00  0.00    -0.346 N 
ATOM      3  C11 UNK     1       1.496  32.106 234.552  1.00  0.00     0.241 C 
ATOM      4  O3  UNK     1       1.115  31.486 235.541  1.00  0.00    -0.271 OA
ATOM      5  H14 UNK     1       2.275  33.820 233.671  1.00  0.00     0.163 HD
BRANCH   3   6
ATOM      6  C7  UNK     1       1.405  31.530 233.176  1.00  0.00     0.177 C 
ATOM      7  N3  UNK     1       0.338  30.569 233.199  1.00  0.00    -0.348 N 
ATOM      8  C13 UNK     1      -0.839  31.052 232.637  1.00  0.00     0.218 C 
ATOM      9  H17 UNK     1       0.417  29.648 233.618  1.00  0.00     0.163 HD
ATOM     10  O4  UNK     1      -1.911  30.473 232.558  1.00  0.00    -0.274 OA
ATOM     11  C12 UNK     1      -0.572  32.462 232.172  1.00  0.00     0.105 C 
ATOM     12  C10 UNK     1       0.954  32.545 232.142  1.00  0.00     0.044 C 
ENDBRANCH   3   6
ENDBRANCH   1   2
BRANCH   1  13
ATOM     13  C6  UNK     1       1.370  35.405 235.485  1.00  0.00     0.243 C 
ATOM     14  O1  UNK     1       1.824  36.323 234.801  1.00  0.00    -0.271 OA
ATOM     15  N1  UNK     1       0.110  35.417 236.065  1.00  0.00    -0.337 N 
ATOM     16  C1  UNK     1      -0.873  36.453 235.779  1.00  0.00     0.179 C 
ATOM     17  C3  UNK     1      -0.466  34.353 236.881  1.00  0.00     0.127 C 
ATOM     18  C2  UNK     1      -2.204  35.856 236.221  1.00  0.00     0.037 C 
ATOM     19  C4  UNK     1      -1.808  34.901 237.345  1.00  0.00     0.022 C 
BRANCH  16  20
ATOM     20  C8  UNK     1      -0.502  37.653 236.597  1.00  0.00     0.238 C 
ATOM     21  O2  UNK     1       0.447  37.643 237.378  1.00  0.00    -0.271 OA
ATOM     22  N4  UNK     1      -1.327  38.734 236.401  1.00  0.00    -0.368 N 
ATOM     23  H18 UNK     1      -1.179  39.602 236.906  1.00  0.00     0.159 HD
ATOM     24  H19 UNK     1      -2.098  38.718 235.741  1.00  0.00     0.159 HD
ENDBRANCH  16  20
ENDBRANCH   1  13
BRANCH   1  25
ATOM     25  C9  UNK     1       3.645  34.556 236.019  1.00  0.00     0.093 C 
BRANCH  25  26
ATOM     26  C14 UNK     1       3.762  35.552 237.148  1.00  0.00     0.028 A 
ATOM     27  N5  UNK     1       4.330  36.785 236.991  1.00  0.00    -0.354 N 
ATOM     28  C16 UNK     1       4.271  37.422 238.199  1.00  0.00     0.180 A 
ATOM     29  H20 UNK     1       4.723  37.161 236.138  1.00  0.00     0.166 HD
ATOM     30  N6  UNK     1       3.700  36.673 239.117  1.00  0.00    -0.360 N 
ATOM     31  C15 UNK     1       3.381  35.506 238.469  1.00  0.00     0.114 A 
ATOM     32  H6  UNK     1       3.532  36.909 240.095  1.00  0.00     0.166 HD
ENDBRANCH  25  26
ENDBRANCH   1  25
TORSDOF 6
ENDMDL
MODEL 5
REMARK VINA RESULT:      -7.0      2.247      6.565
REMARK  6 active torsions:
REMARK  status: ('A' for Active; 'I' for Inactive)
REMARK       I    between atoms: N1_5  and  C6_17 
REMARK    1  A    between atoms: N2_6  and  C5_16 
REMARK       I    between atoms: N2_6  and  C11_22 
REMARK       I    between atoms: N4_8  and  C8_19 
REMARK    2  A    between atoms: C1_12  and  C8_19 
REMARK    3  A    between atoms: C5_16  and  C6_17 
REMARK    4  A    between atoms: C5_16  and  C9_20 
REMARK    5  A    between atoms: C7_18  and  C11_22 
REMARK    6  A    between atoms: C9_20  and  C14_25 
ROOT
ATOM      1  C5  UNK     1      -1.521  39.462 227.777  1.00  0.00     0.182 C 
ENDROOT
BRANCH   1   2
ATOM      2  N2  UNK     1      -2.530  39.884 226.848  1.00  0.00    -0.346 N 
ATOM      3  C11 UNK     1      -2.258  40.625 225.704  1.00  0.00     0.241 C 
ATOM      4  O3  UNK     1      -1.146  41.007 225.347  1.00  0.00    -0.271 OA
ATOM      5  H14 UNK     1      -3.488  39.594 227.024  1.00  0.00     0.163 HD
BRANCH   3   6
ATOM      6  C7  UNK     1      -3.485  40.909 224.899  1.00  0.00     0.177 C 
ATOM      7  N3  UNK     1      -3.076  40.952 223.523  1.00  0.00    -0.348 N 
ATOM      8  C13 UNK     1      -3.383  39.786 222.830  1.00  0.00     0.218 C 
ATOM      9  H17 UNK     1      -2.579  41.731 223.105  1.00  0.00     0.163 HD
ATOM     10  O4  UNK     1      -3.119  39.527 221.666  1.00  0.00    -0.274 OA
ATOM     11  C12 UNK     1      -4.072  38.854 223.797  1.00  0.00     0.105 C 
ATOM     12  C10 UNK     1      -4.492  39.775 224.942  1.00  0.00     0.044 C 
ENDBRANCH   3   6
ENDBRANCH   1   2
BRANCH   1  13
ATOM     13  C6  UNK     1      -2.200  38.369 228.562  1.00  0.00     0.243 C 
ATOM     14  O1  UNK     1      -3.361  38.510 228.951  1.00  0.00    -0.271 OA
ATOM     15  N1  UNK     1      -1.431  37.242 228.807  1.00  0.00    -0.337 N 
ATOM     16  C1  UNK     1      -1.980  36.034 229.407  1.00  0.00     0.179 C 
ATOM     17  C3  UNK     1      -0.054  37.033 228.366  1.00  0.00     0.127 C 
ATOM     18  C2  UNK     1      -0.972  34.941 229.071  1.00  0.00     0.037 C 
ATOM     19  C4  UNK     1       0.351  35.698 228.973  1.00  0.00     0.022 C 
BRANCH  16  20
ATOM     20  C8  UNK     1      -2.069  36.274 230.884  1.00  0.00     0.238 C 
ATOM     21  O2  UNK     1      -1.097  36.149 231.625  1.00  0.00    -0.271 OA
ATOM     22  N4  UNK     1      -3.327  36.621 231.314  1.00  0.00    -0.368 N 
ATOM     23  H18 UNK     1      -3.511  36.802 232.296  1.00  0.00     0.159 HD
ATOM     24  H19 UNK     1      -4.111  36.728 230.677  1.00  0.00     0.159 HD
ENDBRANCH  16  20
ENDBRANCH   1  13
BRANCH   1  25
ATOM     25  C9  UNK     1      -1.057  40.572 228.712  1.00  0.00     0.093 C 
BRANCH  25  26
ATOM     26  C14 UNK     1       0.370  40.981 228.433  1.00  0.00     0.028 A 
ATOM     27  N5  UNK     1       1.142  40.371 227.485  1.00  0.00    -0.354 N 
ATOM     28  C16 UNK     1       2.364  40.983 227.496  1.00  0.00     0.180 A 
ATOM     29  H20 UNK     1       0.863  39.607 226.883  1.00  0.00     0.166 HD
ATOM     30  N6  UNK     1       2.421  41.944 228.391  1.00  0.00    -0.360 N 
ATOM     31  C15 UNK     1       1.180  41.948 228.979  1.00  0.00     0.114 A 
ATOM     32  H6  UNK     1       3.212  42.553 228.601  1.00  0.00     0.166 HD
ENDBRANCH  25  26
ENDBRANCH   1  25
TORSDOF 6
ENDMDL
MODEL 6
REMARK VINA RESULT:      -6.9      6.245     10.394
REMARK  6 active torsions:
REMARK  status: ('A' for Active; 'I' for Inactive)
REMARK       I    between atoms: N1_5  and  C6_17 
REMARK    1  A    between atoms: N2_6  and  C5_16 
REMARK       I    between atoms: N2_6  and  C11_22 
REMARK       I    between atoms: N4_8  and  C8_19 
REMARK    2  A    between atoms: C1_12  and  C8_19 
REMARK    3  A    between atoms: C5_16  and  C6_17 
REMARK    4  A    between atoms: C5_16  and  C9_20 
REMARK    5  A    between atoms: C7_18  and  C11_22 
REMARK    6  A    between atoms: C9_20  and  C14_25 
ROOT
ATOM      1  C5  UNK     1      -0.120  33.676 235.524  1.00  0.00     0.182 C 
ENDROOT
BRANCH   1   2
ATOM      2  N2  UNK     1      -0.241  33.304 234.143  1.00  0.00    -0.346 N 
ATOM      3  C11 UNK     1      -0.912  34.072 233.199  1.00  0.00     0.241 C 
ATOM      4  O3  UNK     1      -1.475  35.142 233.416  1.00  0.00    -0.271 OA
ATOM      5  H14 UNK     1       0.218  32.451 233.840  1.00  0.00     0.163 HD
BRANCH   3   6
ATOM      6  C7  UNK     1      -0.867  33.469 231.831  1.00  0.00     0.177 C 
ATOM      7  N3  UNK     1      -1.265  34.497 230.912  1.00  0.00    -0.348 N 
ATOM      8  C13 UNK     1      -0.189  35.079 230.250  1.00  0.00     0.218 C 
ATOM      9  H17 UNK     1      -2.225  34.800 230.785  1.00  0.00     0.163 HD
ATOM     10  O4  UNK     1      -0.225  35.999 229.448  1.00  0.00    -0.274 OA
ATOM     11  C12 UNK     1       1.064  34.396 230.738  1.00  0.00     0.105 C 
ATOM     12  C10 UNK     1       0.542  33.116 231.391  1.00  0.00     0.044 C 
ENDBRANCH   3   6
ENDBRANCH   1   2
BRANCH   1  13
ATOM     13  C6  UNK     1       1.201  34.400 235.579  1.00  0.00     0.243 C 
ATOM     14  O1  UNK     1       2.232  33.844 235.194  1.00  0.00    -0.271 OA
ATOM     15  N1  UNK     1       1.156  35.688 236.090  1.00  0.00    -0.337 N 
ATOM     16  C1  UNK     1       2.307  36.580 236.065  1.00  0.00     0.179 C 
ATOM     17  C3  UNK     1      -0.040  36.383 236.557  1.00  0.00     0.127 C 
ATOM     18  C2  UNK     1       1.722  37.972 236.272  1.00  0.00     0.037 C 
ATOM     19  C4  UNK     1       0.467  37.710 237.102  1.00  0.00     0.022 C 
BRANCH  16  20
ATOM     20  C8  UNK     1       3.204  36.179 237.197  1.00  0.00     0.238 C 
ATOM     21  O2  UNK     1       2.794  35.525 238.153  1.00  0.00    -0.271 OA
ATOM     22  N4  UNK     1       4.497  36.625 237.065  1.00  0.00    -0.368 N 
ATOM     23  H18 UNK     1       5.194  36.421 237.774  1.00  0.00     0.159 HD
ATOM     24  H19 UNK     1       4.811  37.155 236.258  1.00  0.00     0.159 HD
ENDBRANCH  16  20
ENDBRANCH   1  13
BRANCH   1  25
ATOM     25  C9  UNK     1      -0.108  32.484 236.472  1.00  0.00     0.093 C 
BRANCH  25  26
ATOM     26  C14 UNK     1      -1.069  32.671 237.622  1.00  0.00     0.028 A 
ATOM     27  N5  UNK     1      -1.189  31.769 238.641  1.00  0.00    -0.354 N 
ATOM     28  C16 UNK     1      -2.137  32.245 239.502  1.00  0.00     0.180 A 
ATOM     29  H20 UNK     1      -0.672  30.905 238.742  1.00  0.00     0.166 HD
ATOM     30  N6  UNK     1      -2.629  33.396 239.098  1.00  0.00    -0.360 N 
ATOM     31  C15 UNK     1      -1.968  33.667 237.926  1.00  0.00     0.114 A 
ATOM     32  H6  UNK     1      -3.345  33.961 239.555  1.00  0.00     0.166 HD
ENDBRANCH  25  26
ENDBRANCH   1  25
TORSDOF 6
ENDMDL
MODEL 7
REMARK VINA RESULT:      -6.8      6.910     10.409
REMARK  6 active torsions:
REMARK  status: ('A' for Active; 'I' for Inactive)
REMARK       I    between atoms: N1_5  and  C6_17 
REMARK    1  A    between atoms: N2_6  and  C5_16 
REMARK       I    between atoms: N2_6  and  C11_22 
REMARK       I    between atoms: N4_8  and  C8_19 
REMARK    2  A    between atoms: C1_12  and  C8_19 
REMARK    3  A    between atoms: C5_16  and  C6_17 
REMARK    4  A    between atoms: C5_16  and  C9_20 
REMARK    5  A    between atoms: C7_18  and  C11_22 
REMARK    6  A    between atoms: C9_20  and  C14_25 
ROOT
ATOM      1  C5  UNK     1       0.860  36.235 235.085  1.00  0.00     0.182 C 
ENDROOT
BRANCH   1   2
ATOM      2  N2  UNK     1       2.068  36.543 235.797  1.00  0.00    -0.346 N 
ATOM      3  C11 UNK     1       2.095  37.251 236.993  1.00  0.00     0.241 C 
ATOM      4  O3  UNK     1       1.114  37.695 237.583  1.00  0.00    -0.271 OA
ATOM      5  H14 UNK     1       2.943  36.193 235.418  1.00  0.00     0.163 HD
BRANCH   3   6
ATOM      6  C7  UNK     1       3.479  37.411 237.534  1.00  0.00     0.177 C 
ATOM      7  N3  UNK     1       3.405  37.148 238.944  1.00  0.00    -0.348 N 
ATOM      8  C13 UNK     1       3.855  35.877 239.283  1.00  0.00     0.218 C 
ATOM      9  H17 UNK     1       3.026  37.803 239.621  1.00  0.00     0.163 HD
ATOM     10  O4  UNK     1       3.869  35.371 240.395  1.00  0.00    -0.274 OA
ATOM     11  C12 UNK     1       4.289  35.197 238.009  1.00  0.00     0.105 C 
ATOM     12  C10 UNK     1       4.438  36.353 237.020  1.00  0.00     0.044 C 
ENDBRANCH   3   6
ENDBRANCH   1   2
BRANCH   1  13
ATOM     13  C6  UNK     1       0.464  34.887 235.631  1.00  0.00     0.243 C 
ATOM     14  O1  UNK     1       1.210  33.916 235.492  1.00  0.00    -0.271 OA
ATOM     15  N1  UNK     1      -0.767  34.837 236.267  1.00  0.00    -0.337 N 
ATOM     16  C1  UNK     1      -1.228  33.659 236.988  1.00  0.00     0.179 C 
ATOM     17  C3  UNK     1      -1.680  35.961 236.453  1.00  0.00     0.127 C 
ATOM     18  C2  UNK     1      -2.348  34.169 237.887  1.00  0.00     0.037 C 
ATOM     19  C4  UNK     1      -2.913  35.358 237.111  1.00  0.00     0.022 C 
BRANCH  16  20
ATOM     20  C8  UNK     1      -1.734  32.685 235.967  1.00  0.00     0.238 C 
ATOM     21  O2  UNK     1      -2.802  32.848 235.382  1.00  0.00    -0.271 OA
ATOM     22  N4  UNK     1      -0.907  31.605 235.773  1.00  0.00    -0.368 N 
ATOM     23  H18 UNK     1      -1.148  30.875 235.111  1.00  0.00     0.159 HD
ATOM     24  H19 UNK     1      -0.023  31.501 236.263  1.00  0.00     0.159 HD
ENDBRANCH  16  20
ENDBRANCH   1  13
BRANCH   1  25
ATOM     25  C9  UNK     1       1.050  36.158 233.576  1.00  0.00     0.093 C 
BRANCH  25  26
ATOM     26  C14 UNK     1      -0.264  35.982 232.853  1.00  0.00     0.028 A 
ATOM     27  N5  UNK     1      -1.295  36.871 232.966  1.00  0.00    -0.354 N 
ATOM     28  C16 UNK     1      -2.320  36.412 232.188  1.00  0.00     0.180 A 
ATOM     29  H20 UNK     1      -1.302  37.716 233.523  1.00  0.00     0.166 HD
ATOM     30  N6  UNK     1      -2.008  35.286 231.584  1.00  0.00    -0.360 N 
ATOM     31  C15 UNK     1      -0.727  35.013 231.995  1.00  0.00     0.114 A 
ATOM     32  H6  UNK     1      -2.590  34.738 230.951  1.00  0.00     0.166 HD
ENDBRANCH  25  26
ENDBRANCH   1  25
TORSDOF 6
ENDMDL
MODEL 8
REMARK VINA RESULT:      -6.8      7.043     10.867
REMARK  6 active torsions:
REMARK  status: ('A' for Active; 'I' for Inactive)
REMARK       I    between atoms: N1_5  and  C6_17 
REMARK    1  A    between atoms: N2_6  and  C5_16 
REMARK       I    between atoms: N2_6  and  C11_22 
REMARK       I    between atoms: N4_8  and  C8_19 
REMARK    2  A    between atoms: C1_12  and  C8_19 
REMARK    3  A    between atoms: C5_16  and  C6_17 
REMARK    4  A    between atoms: C5_16  and  C9_20 
REMARK    5  A    between atoms: C7_18  and  C11_22 
REMARK    6  A    between atoms: C9_20  and  C14_25 
ROOT
ATOM      1  C5  UNK     1       0.845  35.703 236.958  1.00  0.00     0.182 C 
ENDROOT
BRANCH   1   2
ATOM      2  N2  UNK     1       1.849  34.725 237.268  1.00  0.00    -0.346 N 
ATOM      3  C11 UNK     1       1.559  33.460 237.764  1.00  0.00     0.241 C 
ATOM      4  O3  UNK     1       0.435  33.023 237.997  1.00  0.00    -0.271 OA
ATOM      5  H14 UNK     1       2.818  34.965 237.080  1.00  0.00     0.163 HD
BRANCH   3   6
ATOM      6  C7  UNK     1       2.786  32.632 237.976  1.00  0.00     0.177 C 
ATOM      7  N3  UNK     1       2.448  31.288 237.599  1.00  0.00    -0.348 N 
ATOM      8  C13 UNK     1       2.924  30.943 236.339  1.00  0.00     0.218 C 
ATOM      9  H17 UNK     1       1.886  30.665 238.170  1.00  0.00     0.163 HD
ATOM     10  O4  UNK     1       2.754  29.887 235.748  1.00  0.00    -0.274 OA
ATOM     11  C12 UNK     1       3.664  32.139 235.793  1.00  0.00     0.105 C 
ATOM     12  C10 UNK     1       3.914  33.000 237.031  1.00  0.00     0.044 C 
ENDBRANCH   3   6
ENDBRANCH   1   2
BRANCH   1  13
ATOM     13  C6  UNK     1       0.609  35.510 235.482  1.00  0.00     0.243 C 
ATOM     14  O1  UNK     1       1.518  35.709 234.674  1.00  0.00    -0.271 OA
ATOM     15  N1  UNK     1      -0.673  35.115 235.128  1.00  0.00    -0.337 N 
ATOM     16  C1  UNK     1      -1.026  34.729 233.769  1.00  0.00     0.179 C 
ATOM     17  C3  UNK     1      -1.778  34.868 236.050  1.00  0.00     0.127 C 
ATOM     18  C2  UNK     1      -2.328  33.951 233.913  1.00  0.00     0.037 C 
ATOM     19  C4  UNK     1      -2.971  34.562 235.157  1.00  0.00     0.022 C 
BRANCH  16  20
ATOM     20  C8  UNK     1      -1.216  35.993 232.985  1.00  0.00     0.238 C 
ATOM     21  O2  UNK     1      -1.668  37.015 233.496  1.00  0.00    -0.271 OA
ATOM     22  N4  UNK     1      -0.859  35.885 231.663  1.00  0.00    -0.368 N 
ATOM     23  H18 UNK     1      -0.950  36.674 231.032  1.00  0.00     0.159 HD
ATOM     24  H19 UNK     1      -0.477  35.030 231.270  1.00  0.00     0.159 HD
ENDBRANCH  16  20
ENDBRANCH   1  13
BRANCH   1  25
ATOM     25  C9  UNK     1       1.288  37.134 237.238  1.00  0.00     0.093 C 
BRANCH  25  26
ATOM     26  C14 UNK     1       2.723  37.196 237.704  1.00  0.00     0.028 A 
ATOM     27  N5  UNK     1       3.087  37.005 239.007  1.00  0.00    -0.354 N 
ATOM     28  C16 UNK     1       4.446  37.128 239.076  1.00  0.00     0.180 A 
ATOM     29  H20 UNK     1       2.466  36.809 239.782  1.00  0.00     0.166 HD
ATOM     30  N6  UNK     1       4.973  37.384 237.899  1.00  0.00    -0.360 N 
ATOM     31  C15 UNK     1       3.904  37.428 237.039  1.00  0.00     0.114 A 
ATOM     32  H6  UNK     1       5.959  37.520 237.675  1.00  0.00     0.166 HD
ENDBRANCH  25  26
ENDBRANCH   1  25
TORSDOF 6
ENDMDL
MODEL 9
REMARK VINA RESULT:      -6.6      4.863      7.949
REMARK  6 active torsions:
REMARK  status: ('A' for Active; 'I' for Inactive)
REMARK       I    between atoms: N1_5  and  C6_17 
REMARK    1  A    between atoms: N2_6  and  C5_16 
REMARK       I    between atoms: N2_6  and  C11_22 
REMARK       I    between atoms: N4_8  and  C8_19 
REMARK    2  A    between atoms: C1_12  and  C8_19 
REMARK    3  A    between atoms: C5_16  and  C6_17 
REMARK    4  A    between atoms: C5_16  and  C9_20 
REMARK    5  A    between atoms: C7_18  and  C11_22 
REMARK    6  A    between atoms: C9_20  and  C14_25 
ROOT
ATOM      1  C5  UNK     1      -0.780  35.503 233.056  1.00  0.00     0.182 C 
ENDROOT
BRANCH   1   2
ATOM      2  N2  UNK     1      -0.795  36.129 231.765  1.00  0.00    -0.346 N 
ATOM      3  C11 UNK     1      -1.946  36.629 231.169  1.00  0.00     0.241 C 
ATOM      4  O3  UNK     1      -3.073  36.602 231.655  1.00  0.00    -0.271 OA
ATOM      5  H14 UNK     1       0.092  36.239 231.282  1.00  0.00     0.163 HD
BRANCH   3   6
ATOM      6  C7  UNK     1      -1.677  37.252 229.836  1.00  0.00     0.177 C 
ATOM      7  N3  UNK     1      -0.845  36.334 229.111  1.00  0.00    -0.348 N 
ATOM      8  C13 UNK     1      -1.549  35.592 228.169  1.00  0.00     0.218 C 
ATOM      9  H17 UNK     1       0.146  36.207 229.290  1.00  0.00     0.163 HD
ATOM     10  O4  UNK     1      -1.111  34.714 227.442  1.00  0.00    -0.274 OA
ATOM     11  C12 UNK     1      -2.991  36.033 228.233  1.00  0.00     0.105 C 
ATOM     12  C10 UNK     1      -2.923  37.366 228.978  1.00  0.00     0.044 C 
ENDBRANCH   3   6
ENDBRANCH   1   2
BRANCH   1  13
ATOM     13  C6  UNK     1       0.600  35.809 233.580  1.00  0.00     0.243 C 
ATOM     14  O1  UNK     1       1.596  35.518 232.917  1.00  0.00    -0.271 OA
ATOM     15  N1  UNK     1       0.645  36.412 234.828  1.00  0.00    -0.337 N 
ATOM     16  C1  UNK     1       1.881  36.920 235.408  1.00  0.00     0.179 C 
ATOM     17  C3  UNK     1      -0.509  36.773 235.647  1.00  0.00     0.127 C 
ATOM     18  C2  UNK     1       1.430  37.877 236.504  1.00  0.00     0.037 C 
ATOM     19  C4  UNK     1       0.084  37.305 236.944  1.00  0.00     0.022 C 
BRANCH  16  20
ATOM     20  C8  UNK     1       2.623  35.743 235.967  1.00  0.00     0.238 C 
ATOM     21  O2  UNK     1       2.042  34.776 236.452  1.00  0.00    -0.271 OA
ATOM     22  N4  UNK     1       3.990  35.867 235.899  1.00  0.00    -0.368 N 
ATOM     23  H18 UNK     1       4.598  35.136 236.254  1.00  0.00     0.159 HD
ATOM     24  H19 UNK     1       4.444  36.674 235.482  1.00  0.00     0.159 HD
ENDBRANCH  16  20
ENDBRANCH   1  13
BRANCH   1  25
ATOM     25  C9  UNK     1      -1.001  33.996 233.000  1.00  0.00     0.093 C 
BRANCH  25  26
ATOM     26  C14 UNK     1      -0.676  33.432 231.637  1.00  0.00     0.028 A 
ATOM     27  N5  UNK     1       0.602  33.329 231.164  1.00  0.00    -0.354 N 
ATOM     28  C16 UNK     1       0.534  32.782 229.914  1.00  0.00     0.180 A 
ATOM     29  H20 UNK     1       1.446  33.607 231.649  1.00  0.00     0.166 HD
ATOM     30  N6  UNK     1      -0.706  32.528 229.559  1.00  0.00    -0.360 N 
ATOM     31  C15 UNK     1      -1.466  32.931 230.629  1.00  0.00     0.114 A 
ATOM     32  H6  UNK     1      -1.032  32.121 228.683  1.00  0.00     0.166 HD
ENDBRANCH  25  26
ENDBRANCH   1  25
TORSDOF 6
ENDMDL
