MODEL 1
REMARK VINA RESULT:      -7.6      0.000      0.000
REMARK  6 active torsions:
REMARK  status: ('A' for Active; 'I' for Inactive)
REMARK    1  A    between atoms: N1_2  and  C5_8 
REMARK    2  A    between atoms: N2_3  and  C6_9 
REMARK    3  A    between atoms: C5_8  and  C7_10 
REMARK    4  A    between atoms: C5_8  and  C8_11 
REMARK    5  A    between atoms: C6_9  and  C9_12 
REMARK    6  A    between atoms: C10_13  and  C11_14 
ROOT
ATOM      1  N1  UNK     1       0.401  33.977 233.393  1.00  0.00     0.105 N 
ATOM      2  N2  UNK     1      -0.556  35.248 230.978  1.00  0.00     0.096 N 
ATOM      3  C1  UNK     1      -1.034  34.077 233.102  1.00  0.00     0.304 C 
ATOM      4  C2  UNK     1       1.126  35.098 232.782  1.00  0.00     0.304 C 
ATOM      5  C3  UNK     1      -1.283  34.127 231.591  1.00  0.00     0.303 C 
ATOM      6  C4  UNK     1       0.879  35.149 231.270  1.00  0.00     0.303 C 
ENDROOT
BRANCH   1   7
ATOM      7  C5  UNK     1       0.637  33.931 234.835  1.00  0.00     0.289 C 
BRANCH   7   8
ATOM      8  C7  UNK     1       1.824  33.050 235.199  1.00  0.00    -0.021 A 
ATOM      9  C14 UNK     1       2.587  33.381 236.299  1.00  0.00     0.011 A 
ATOM     10  C23 UNK     1       3.676  32.576 236.631  1.00  0.00     0.024 A 
ATOM     11  C27 UNK     1       3.978  31.456 235.856  1.00  0.00     0.034 A 
ATOM     12 Cl1  UNK     1       5.322  30.463 236.266  1.00  0.00    -0.084 Cl
ATOM     13  C24 UNK     1       3.192  31.143 234.748  1.00  0.00     0.024 A 
ATOM     14  C15 UNK     1       2.103  31.949 234.415  1.00  0.00     0.011 A 
ENDBRANCH   7   8
BRANCH   7  15
ATOM     15  C8  UNK     1       0.751  35.318 235.449  1.00  0.00    -0.021 A 
ATOM     16  C16 UNK     1      -0.317  35.821 236.164  1.00  0.00     0.010 A 
ATOM     17  C25 UNK     1      -0.213  37.092 236.727  1.00  0.00     0.001 A 
ATOM     18  C28 UNK     1       0.957  37.835 236.563  1.00  0.00     0.000 A 
ATOM     19  C26 UNK     1       2.022  37.304 235.835  1.00  0.00     0.001 A 
ATOM     20  C17 UNK     1       1.919  36.032 235.272  1.00  0.00     0.010 A 
ENDBRANCH   7  15
ENDBRANCH   1   7
BRANCH   2  21
ATOM     21  C6  UNK     1      -0.791  35.292 229.537  1.00  0.00     0.311 C 
BRANCH  21  22
ATOM     22  C9  UNK     1      -0.547  36.666 228.971  1.00  0.00    -0.030 A 
ATOM     23  C12 UNK     1       0.548  36.881 228.146  1.00  0.00     0.009 A 
ATOM     24  C18 UNK     1       0.774  38.154 227.623  1.00  0.00     0.008 A 
ATOM     25  C11 UNK     1      -0.097  39.200 227.930  1.00  0.00    -0.051 A 
ATOM     26  C19 UNK     1      -1.194  38.972 228.761  1.00  0.00     0.008 A 
ATOM     27  C13 UNK     1      -1.421  37.698 229.284  1.00  0.00     0.009 A 
BRANCH  25  28
ATOM     28  C10 UNK     1       0.145  40.561 227.371  1.00  0.00    -0.024 C 
ATOM     29  C20 UNK     1       1.398  40.692 226.442  1.00  0.00     0.019 C 
ATOM     30  C21 UNK     1      -1.063  41.043 226.510  1.00  0.00     0.019 C 
ATOM     31  C22 UNK     1       0.360  41.608 228.508  1.00  0.00     0.019 C 
ENDBRANCH  25  28
ENDBRANCH  21  22
ENDBRANCH   2  21
TORSDOF 6
ENDMDL
MODEL 2
REMARK VINA RESULT:      -7.6      4.152      9.212
REMARK  6 active torsions:
REMARK  status: ('A' for Active; 'I' for Inactive)
REMARK    1  A    between atoms: N1_2  and  C5_8 
REMARK    2  A    between atoms: N2_3  and  C6_9 
REMARK    3  A    between atoms: C5_8  and  C7_10 
REMARK    4  A    between atoms: C5_8  and  C8_11 
REMARK    5  A    between atoms: C6_9  and  C9_12 
REMARK    6  A    between atoms: C10_13  and  C11_14 
ROOT
ATOM      1  N1  UNK     1      -2.409  35.784 231.180  1.00  0.00     0.105 N 
ATOM      2  N2  UNK     1      -1.746  35.727 233.994  1.00  0.00     0.096 N 
ATOM      3  C1  UNK     1      -2.970  34.765 232.074  1.00  0.00     0.304 C 
ATOM      4  C2  UNK     1      -1.092  36.218 231.662  1.00  0.00     0.304 C 
ATOM      5  C3  UNK     1      -3.063  35.290 233.511  1.00  0.00     0.303 C 
ATOM      6  C4  UNK     1      -1.184  36.745 233.099  1.00  0.00     0.303 C 
ENDROOT
BRANCH   1   7
ATOM      7  C5  UNK     1      -2.319  35.281 229.810  1.00  0.00     0.289 C 
BRANCH   7   8
ATOM      8  C7  UNK     1      -3.126  36.122 228.831  1.00  0.00    -0.021 A 
ATOM      9  C14 UNK     1      -3.188  37.487 229.018  1.00  0.00     0.011 A 
ATOM     10  C23 UNK     1      -3.929  38.257 228.122  1.00  0.00     0.024 A 
ATOM     11  C27 UNK     1      -4.591  37.646 227.057  1.00  0.00     0.034 A 
ATOM     12 Cl1  UNK     1      -5.506  38.596 225.952  1.00  0.00    -0.084 Cl
ATOM     13  C24 UNK     1      -4.513  36.263 226.890  1.00  0.00     0.024 A 
ATOM     14  C15 UNK     1      -3.773  35.493 227.787  1.00  0.00     0.011 A 
ENDBRANCH   7   8
BRANCH   7  15
ATOM     15  C8  UNK     1      -0.880  35.102 229.351  1.00  0.00    -0.021 A 
ATOM     16  C16 UNK     1      -0.268  36.129 228.660  1.00  0.00     0.010 A 
ATOM     17  C25 UNK     1       1.052  35.966 228.239  1.00  0.00     0.001 A 
ATOM     18  C28 UNK     1       1.732  34.780 228.517  1.00  0.00     0.000 A 
ATOM     19  C26 UNK     1       1.091  33.758 229.216  1.00  0.00     0.001 A 
ATOM     20  C17 UNK     1      -0.228  33.920 229.638  1.00  0.00     0.010 A 
ENDBRANCH   7  15
ENDBRANCH   1   7
BRANCH   2  21
ATOM     21  C6  UNK     1      -1.837  36.232 235.362  1.00  0.00     0.311 C 
BRANCH  21  22
ATOM     22  C9  UNK     1      -0.503  36.204 236.060  1.00  0.00    -0.030 A 
ATOM     23  C12 UNK     1       0.204  35.012 236.134  1.00  0.00     0.009 A 
ATOM     24  C18 UNK     1       1.440  34.987 236.781  1.00  0.00     0.008 A 
ATOM     25  C11 UNK     1       1.956  36.153 237.346  1.00  0.00    -0.051 A 
ATOM     26  C19 UNK     1       1.235  37.345 237.265  1.00  0.00     0.008 A 
ATOM     27  C13 UNK     1      -0.000  37.371 236.618  1.00  0.00     0.009 A 
BRANCH  25  28
ATOM     28  C10 UNK     1       3.277  36.126 238.038  1.00  0.00    -0.024 C 
ATOM     29  C20 UNK     1       3.634  37.414 238.853  1.00  0.00     0.019 C 
ATOM     30  C21 UNK     1       3.357  34.951 239.061  1.00  0.00     0.019 C 
ATOM     31  C22 UNK     1       4.445  35.943 237.019  1.00  0.00     0.019 C 
ENDBRANCH  25  28
ENDBRANCH  21  22
ENDBRANCH   2  21
TORSDOF 6
ENDMDL
MODEL 3
REMARK VINA RESULT:      -7.4      3.054      8.585
REMARK  6 active torsions:
REMARK  status: ('A' for Active; 'I' for Inactive)
REMARK    1  A    between atoms: N1_2  and  C5_8 
REMARK    2  A    between atoms: N2_3  and  C6_9 
REMARK    3  A    between atoms: C5_8  and  C7_10 
REMARK    4  A    between atoms: C5_8  and  C8_11 
REMARK    5  A    between atoms: C6_9  and  C9_12 
REMARK    6  A    between atoms: C10_13  and  C11_14 
ROOT
ATOM      1  N1  UNK     1      -0.780  35.762 231.042  1.00  0.00     0.105 N 
ATOM      2  N2  UNK     1      -0.586  36.073 233.910  1.00  0.00     0.096 N 
ATOM      3  C1  UNK     1       0.464  35.458 231.759  1.00  0.00     0.304 C 
ATOM      4  C2  UNK     1      -1.537  36.803 231.749  1.00  0.00     0.304 C 
ATOM      5  C3  UNK     1       0.173  35.033 233.202  1.00  0.00     0.303 C 
ATOM      6  C4  UNK     1      -1.830  36.378 233.193  1.00  0.00     0.303 C 
ENDROOT
BRANCH   1   7
ATOM      7  C5  UNK     1      -0.501  36.169 229.666  1.00  0.00     0.289 C 
BRANCH   7   8
ATOM      8  C7  UNK     1       0.338  35.142 228.918  1.00  0.00    -0.021 A 
ATOM      9  C14 UNK     1       1.378  35.581 228.125  1.00  0.00     0.011 A 
ATOM     10  C23 UNK     1       2.146  34.641 227.438  1.00  0.00     0.024 A 
ATOM     11  C27 UNK     1       1.857  33.281 227.560  1.00  0.00     0.034 A 
ATOM     12 Cl1  UNK     1       2.804  32.121 226.713  1.00  0.00    -0.084 Cl
ATOM     13  C24 UNK     1       0.800  32.863 228.368  1.00  0.00     0.024 A 
ATOM     14  C15 UNK     1       0.032  33.804 229.054  1.00  0.00     0.011 A 
ENDBRANCH   7   8
BRANCH   7  15
ATOM     15  C8  UNK     1      -1.765  36.533 228.901  1.00  0.00    -0.021 A 
ATOM     16  C16 UNK     1      -2.695  35.547 228.642  1.00  0.00     0.010 A 
ATOM     17  C25 UNK     1      -3.854  35.880 227.942  1.00  0.00     0.001 A 
ATOM     18  C28 UNK     1      -4.058  37.192 227.514  1.00  0.00     0.000 A 
ATOM     19  C26 UNK     1      -3.102  38.170 227.787  1.00  0.00     0.001 A 
ATOM     20  C17 UNK     1      -1.943  37.838 228.488  1.00  0.00     0.010 A 
ENDBRANCH   7  15
ENDBRANCH   1   7
BRANCH   2  21
ATOM     21  C6  UNK     1      -0.866  35.664 235.285  1.00  0.00     0.311 C 
BRANCH  21  22
ATOM     22  C9  UNK     1       0.332  35.844 236.179  1.00  0.00    -0.030 A 
ATOM     23  C12 UNK     1       0.763  37.124 236.494  1.00  0.00     0.009 A 
ATOM     24  C18 UNK     1       1.874  37.290 237.322  1.00  0.00     0.008 A 
ATOM     25  C11 UNK     1       2.543  36.174 237.825  1.00  0.00    -0.051 A 
ATOM     26  C19 UNK     1       2.100  34.891 237.499  1.00  0.00     0.008 A 
ATOM     27  C13 UNK     1       0.989  34.726 236.673  1.00  0.00     0.009 A 
BRANCH  25  28
ATOM     28  C10 UNK     1       3.731  36.351 238.708  1.00  0.00    -0.024 C 
ATOM     29  C20 UNK     1       3.480  37.181 240.011  1.00  0.00     0.019 C 
ATOM     30  C21 UNK     1       4.287  34.977 239.192  1.00  0.00     0.019 C 
ATOM     31  C22 UNK     1       4.885  37.089 237.962  1.00  0.00     0.019 C 
ENDBRANCH  25  28
ENDBRANCH  21  22
ENDBRANCH   2  21
TORSDOF 6
ENDMDL
MODEL 4
REMARK VINA RESULT:      -7.4      3.158      9.628
REMARK  6 active torsions:
REMARK  status: ('A' for Active; 'I' for Inactive)
REMARK    1  A    between atoms: N1_2  and  C5_8 
REMARK    2  A    between atoms: N2_3  and  C6_9 
REMARK    3  A    between atoms: C5_8  and  C7_10 
REMARK    4  A    between atoms: C5_8  and  C8_11 
REMARK    5  A    between atoms: C6_9  and  C9_12 
REMARK    6  A    between atoms: C10_13  and  C11_14 
ROOT
ATOM      1  N1  UNK     1      -1.358  38.074 228.351  1.00  0.00     0.105 N 
ATOM      2  N2  UNK     1      -0.418  35.805 229.877  1.00  0.00     0.096 N 
ATOM      3  C1  UNK     1       0.032  37.615 228.256  1.00  0.00     0.304 C 
ATOM      4  C2  UNK     1      -1.909  37.765 229.677  1.00  0.00     0.304 C 
ATOM      5  C3  UNK     1       0.134  36.115 228.552  1.00  0.00     0.303 C 
ATOM      6  C4  UNK     1      -1.809  36.264 229.974  1.00  0.00     0.303 C 
ENDROOT
BRANCH   1   7
ATOM      7  C5  UNK     1      -1.454  39.505 228.071  1.00  0.00     0.289 C 
BRANCH   7   8
ATOM      8  C7  UNK     1      -0.100  40.197 228.127  1.00  0.00    -0.021 A 
ATOM      9  C14 UNK     1       0.923  39.727 227.330  1.00  0.00     0.011 A 
ATOM     10  C23 UNK     1       2.165  40.360 227.383  1.00  0.00     0.024 A 
ATOM     11  C27 UNK     1       2.356  41.451 228.230  1.00  0.00     0.034 A 
ATOM     12 Cl1  UNK     1       3.888  42.232 228.296  1.00  0.00    -0.084 Cl
ATOM     13  C24 UNK     1       1.306  41.908 229.026  1.00  0.00     0.024 A 
ATOM     14  C15 UNK     1       0.065  41.274 228.975  1.00  0.00     0.011 A 
ENDBRANCH   7   8
BRANCH   7  15
ATOM     15  C8  UNK     1      -2.184  39.793 226.768  1.00  0.00    -0.021 A 
ATOM     16  C16 UNK     1      -1.653  40.723 225.897  1.00  0.00     0.010 A 
ATOM     17  C25 UNK     1      -2.321  40.988 224.702  1.00  0.00     0.001 A 
ATOM     18  C28 UNK     1      -3.507  40.317 224.402  1.00  0.00     0.000 A 
ATOM     19  C26 UNK     1      -4.023  39.381 225.299  1.00  0.00     0.001 A 
ATOM     20  C17 UNK     1      -3.355  39.116 226.494  1.00  0.00     0.010 A 
ENDBRANCH   7  15
ENDBRANCH   1   7
BRANCH   2  21
ATOM     21  C6  UNK     1      -0.324  34.373 230.156  1.00  0.00     0.311 C 
BRANCH  21  22
ATOM     22  C9  UNK     1       0.321  34.103 231.490  1.00  0.00    -0.030 A 
ATOM     23  C12 UNK     1       0.833  35.161 232.227  1.00  0.00     0.009 A 
ATOM     24  C18 UNK     1       1.431  34.910 233.463  1.00  0.00     0.008 A 
ATOM     25  C11 UNK     1       1.512  33.605 233.947  1.00  0.00    -0.051 A 
ATOM     26  C19 UNK     1       0.994  32.549 233.195  1.00  0.00     0.008 A 
ATOM     27  C13 UNK     1       0.395  32.800 231.961  1.00  0.00     0.009 A 
BRANCH  25  28
ATOM     28  C10 UNK     1       2.152  33.337 235.267  1.00  0.00    -0.024 C 
ATOM     29  C20 UNK     1       3.182  32.159 235.286  1.00  0.00     0.019 C 
ATOM     30  C21 UNK     1       2.936  34.584 235.780  1.00  0.00     0.019 C 
ATOM     31  C22 UNK     1       1.086  32.974 236.348  1.00  0.00     0.019 C 
ENDBRANCH  25  28
ENDBRANCH  21  22
ENDBRANCH   2  21
TORSDOF 6
ENDMDL
MODEL 5
REMARK VINA RESULT:      -7.2      2.855      3.609
REMARK  6 active torsions:
REMARK  status: ('A' for Active; 'I' for Inactive)
REMARK    1  A    between atoms: N1_2  and  C5_8 
REMARK    2  A    between atoms: N2_3  and  C6_9 
REMARK    3  A    between atoms: C5_8  and  C7_10 
REMARK    4  A    between atoms: C5_8  and  C8_11 
REMARK    5  A    between atoms: C6_9  and  C9_12 
REMARK    6  A    between atoms: C10_13  and  C11_14 
ROOT
ATOM      1  N1  UNK     1      -2.148  35.151 234.136  1.00  0.00     0.105 N 
ATOM      2  N2  UNK     1      -2.823  35.895 231.425  1.00  0.00     0.096 N 
ATOM      3  C1  UNK     1      -3.496  34.933 233.600  1.00  0.00     0.304 C 
ATOM      4  C2  UNK     1      -1.517  36.304 233.483  1.00  0.00     0.304 C 
ATOM      5  C3  UNK     1      -3.456  34.742 232.080  1.00  0.00     0.303 C 
ATOM      6  C4  UNK     1      -1.474  36.114 231.962  1.00  0.00     0.303 C 
ENDROOT
BRANCH   1   7
ATOM      7  C5  UNK     1      -2.189  35.334 235.586  1.00  0.00     0.289 C 
BRANCH   7   8
ATOM      8  C7  UNK     1      -2.332  34.016 236.333  1.00  0.00    -0.021 A 
ATOM      9  C14 UNK     1      -2.564  34.041 237.692  1.00  0.00     0.011 A 
ATOM     10  C23 UNK     1      -2.694  32.833 238.377  1.00  0.00     0.024 A 
ATOM     11  C27 UNK     1      -2.589  31.625 237.686  1.00  0.00     0.034 A 
ATOM     12 Cl1  UNK     1      -2.748  30.134 238.531  1.00  0.00    -0.084 Cl
ATOM     13  C24 UNK     1      -2.353  31.626 236.312  1.00  0.00     0.024 A 
ATOM     14  C15 UNK     1      -2.222  32.835 235.627  1.00  0.00     0.011 A 
ENDBRANCH   7   8
BRANCH   7  15
ATOM     15  C8  UNK     1      -1.013  36.152 236.100  1.00  0.00    -0.021 A 
ATOM     16  C16 UNK     1       0.248  35.591 236.080  1.00  0.00     0.010 A 
ATOM     17  C25 UNK     1       1.326  36.340 236.551  1.00  0.00     0.001 A 
ATOM     18  C28 UNK     1       1.121  37.633 237.033  1.00  0.00     0.000 A 
ATOM     19  C26 UNK     1      -0.164  38.176 237.043  1.00  0.00     0.001 A 
ATOM     20  C17 UNK     1      -1.242  37.429 236.572  1.00  0.00     0.010 A 
ENDBRANCH   7  15
ENDBRANCH   1   7
BRANCH   2  21
ATOM     21  C6  UNK     1      -2.781  35.709 229.976  1.00  0.00     0.311 C 
BRANCH  21  22
ATOM     22  C9  UNK     1      -2.187  36.903 229.275  1.00  0.00    -0.030 A 
ATOM     23  C12 UNK     1      -2.994  37.992 228.981  1.00  0.00     0.009 A 
ATOM     24  C18 UNK     1      -2.444  39.098 228.331  1.00  0.00     0.008 A 
ATOM     25  C11 UNK     1      -1.093  39.102 227.982  1.00  0.00    -0.051 A 
ATOM     26  C19 UNK     1      -0.293  37.999 228.283  1.00  0.00     0.008 A 
ATOM     27  C13 UNK     1      -0.842  36.895 228.934  1.00  0.00     0.009 A 
BRANCH  25  28
ATOM     28  C10 UNK     1      -0.506  40.283 227.287  1.00  0.00    -0.024 C 
ATOM     29  C20 UNK     1      -0.239  41.531 228.194  1.00  0.00     0.019 C 
ATOM     30  C21 UNK     1       0.872  39.934 226.644  1.00  0.00     0.019 C 
ATOM     31  C22 UNK     1      -1.442  40.791 226.147  1.00  0.00     0.019 C 
ENDBRANCH  25  28
ENDBRANCH  21  22
ENDBRANCH   2  21
TORSDOF 6
ENDMDL
MODEL 6
REMARK VINA RESULT:      -7.2      2.516      4.357
REMARK  6 active torsions:
REMARK  status: ('A' for Active; 'I' for Inactive)
REMARK    1  A    between atoms: N1_2  and  C5_8 
REMARK    2  A    between atoms: N2_3  and  C6_9 
REMARK    3  A    between atoms: C5_8  and  C7_10 
REMARK    4  A    between atoms: C5_8  and  C8_11 
REMARK    5  A    between atoms: C6_9  and  C9_12 
REMARK    6  A    between atoms: C10_13  and  C11_14 
ROOT
ATOM      1  N1  UNK     1      -1.743  34.957 232.245  1.00  0.00     0.105 N 
ATOM      2  N2  UNK     1      -1.223  36.516 229.866  1.00  0.00     0.096 N 
ATOM      3  C1  UNK     1      -1.242  36.333 232.331  1.00  0.00     0.304 C 
ATOM      4  C2  UNK     1      -1.286  34.322 231.002  1.00  0.00     0.304 C 
ATOM      5  C3  UNK     1      -1.678  37.151 231.110  1.00  0.00     0.303 C 
ATOM      6  C4  UNK     1      -1.723  35.138 229.780  1.00  0.00     0.303 C 
ENDROOT
BRANCH   1   7
ATOM      7  C5  UNK     1      -1.325  34.178 233.409  1.00  0.00     0.289 C 
BRANCH   7   8
ATOM      8  C7  UNK     1      -0.633  35.034 234.460  1.00  0.00    -0.021 A 
ATOM      9  C14 UNK     1       0.742  34.987 234.559  1.00  0.00     0.011 A 
ATOM     10  C23 UNK     1       1.375  35.771 235.523  1.00  0.00     0.024 A 
ATOM     11  C27 UNK     1       0.620  36.585 236.367  1.00  0.00     0.034 A 
ATOM     12 Cl1  UNK     1       1.402  37.551 237.558  1.00  0.00    -0.084 Cl
ATOM     13  C24 UNK     1      -0.769  36.615 236.247  1.00  0.00     0.024 A 
ATOM     14  C15 UNK     1      -1.403  35.830 235.284  1.00  0.00     0.011 A 
ENDBRANCH   7   8
BRANCH   7  15
ATOM     15  C8  UNK     1      -2.465  33.364 234.002  1.00  0.00    -0.021 A 
ATOM     16  C16 UNK     1      -2.165  32.289 234.815  1.00  0.00     0.010 A 
ATOM     17  C25 UNK     1      -3.210  31.543 235.359  1.00  0.00     0.001 A 
ATOM     18  C28 UNK     1      -4.533  31.886 235.079  1.00  0.00     0.000 A 
ATOM     19  C26 UNK     1      -4.809  32.976 234.254  1.00  0.00     0.001 A 
ATOM     20  C17 UNK     1      -3.765  33.723 233.710  1.00  0.00     0.010 A 
ENDBRANCH   7  15
ENDBRANCH   1   7
BRANCH   2  21
ATOM     21  C6  UNK     1      -1.643  37.294 228.702  1.00  0.00     0.311 C 
BRANCH  21  22
ATOM     22  C9  UNK     1      -0.655  38.380 228.368  1.00  0.00    -0.030 A 
ATOM     23  C12 UNK     1       0.550  38.045 227.768  1.00  0.00     0.009 A 
ATOM     24  C18 UNK     1       1.466  39.051 227.458  1.00  0.00     0.008 A 
ATOM     25  C11 UNK     1       1.167  40.382 227.752  1.00  0.00    -0.051 A 
ATOM     26  C19 UNK     1      -0.048  40.706 228.357  1.00  0.00     0.008 A 
ATOM     27  C13 UNK     1      -0.964  39.700 228.665  1.00  0.00     0.009 A 
BRANCH  25  28
ATOM     28  C10 UNK     1       2.145  41.457 227.422  1.00  0.00    -0.024 C 
ATOM     29  C20 UNK     1       1.826  42.864 228.028  1.00  0.00     0.019 C 
ATOM     30  C21 UNK     1       3.575  41.099 227.934  1.00  0.00     0.019 C 
ATOM     31  C22 UNK     1       2.241  41.680 225.880  1.00  0.00     0.019 C 
ENDBRANCH  25  28
ENDBRANCH  21  22
ENDBRANCH   2  21
TORSDOF 6
ENDMDL
MODEL 7
REMARK VINA RESULT:      -7.0      2.277      3.893
REMARK  6 active torsions:
REMARK  status: ('A' for Active; 'I' for Inactive)
REMARK    1  A    between atoms: N1_2  and  C5_8 
REMARK    2  A    between atoms: N2_3  and  C6_9 
REMARK    3  A    between atoms: C5_8  and  C7_10 
REMARK    4  A    between atoms: C5_8  and  C8_11 
REMARK    5  A    between atoms: C6_9  and  C9_12 
REMARK    6  A    between atoms: C10_13  and  C11_14 
ROOT
ATOM      1  N1  UNK     1      -0.040  33.919 233.638  1.00  0.00     0.105 N 
ATOM      2  N2  UNK     1      -0.679  35.302 231.180  1.00  0.00     0.096 N 
ATOM      3  C1  UNK     1      -1.292  34.669 233.489  1.00  0.00     0.304 C 
ATOM      4  C2  UNK     1       1.011  34.507 232.798  1.00  0.00     0.304 C 
ATOM      5  C3  UNK     1      -1.731  34.716 232.022  1.00  0.00     0.303 C 
ATOM      6  C4  UNK     1       0.574  34.552 231.329  1.00  0.00     0.303 C 
ENDROOT
BRANCH   1   7
ATOM      7  C5  UNK     1       0.378  33.877 235.038  1.00  0.00     0.289 C 
BRANCH   7   8
ATOM      8  C7  UNK     1      -0.722  33.363 235.955  1.00  0.00    -0.021 A 
ATOM      9  C14 UNK     1      -1.340  32.168 235.651  1.00  0.00     0.011 A 
ATOM     10  C23 UNK     1      -2.350  31.698 236.490  1.00  0.00     0.024 A 
ATOM     11  C27 UNK     1      -2.719  32.433 237.617  1.00  0.00     0.034 A 
ATOM     12 Cl1  UNK     1      -3.965  31.853 238.653  1.00  0.00    -0.084 Cl
ATOM     13  C24 UNK     1      -2.079  33.638 237.904  1.00  0.00     0.024 A 
ATOM     14  C15 UNK     1      -1.070  34.109 237.063  1.00  0.00     0.011 A 
ENDBRANCH   7   8
BRANCH   7  15
ATOM     15  C8  UNK     1       1.680  33.114 235.232  1.00  0.00    -0.021 A 
ATOM     16  C16 UNK     1       2.665  33.666 236.025  1.00  0.00     0.010 A 
ATOM     17  C25 UNK     1       3.858  32.967 236.203  1.00  0.00     0.001 A 
ATOM     18  C28 UNK     1       4.042  31.730 235.584  1.00  0.00     0.000 A 
ATOM     19  C26 UNK     1       3.031  31.194 234.787  1.00  0.00     0.001 A 
ATOM     20  C17 UNK     1       1.837  31.892 234.609  1.00  0.00     0.010 A 
ENDBRANCH   7  15
ENDBRANCH   1   7
BRANCH   2  21
ATOM     21  C6  UNK     1      -1.097  35.341 229.780  1.00  0.00     0.311 C 
BRANCH  21  22
ATOM     22  C9  UNK     1      -0.770  36.662 229.135  1.00  0.00    -0.030 A 
ATOM     23  C12 UNK     1      -1.593  37.755 229.362  1.00  0.00     0.009 A 
ATOM     24  C18 UNK     1      -1.290  38.979 228.763  1.00  0.00     0.008 A 
ATOM     25  C11 UNK     1      -0.168  39.096 227.943  1.00  0.00    -0.051 A 
ATOM     26  C19 UNK     1       0.651  37.988 227.722  1.00  0.00     0.008 A 
ATOM     27  C13 UNK     1       0.349  36.765 228.321  1.00  0.00     0.009 A 
BRANCH  25  28
ATOM     28  C10 UNK     1       0.155  40.403 227.303  1.00  0.00    -0.024 C 
ATOM     29  C20 UNK     1      -0.748  40.796 226.087  1.00  0.00     0.019 C 
ATOM     30  C21 UNK     1       0.021  41.580 228.318  1.00  0.00     0.019 C 
ATOM     31  C22 UNK     1       1.617  40.417 226.756  1.00  0.00     0.019 C 
ENDBRANCH  25  28
ENDBRANCH  21  22
ENDBRANCH   2  21
TORSDOF 6
ENDMDL
MODEL 8
REMARK VINA RESULT:      -7.0      3.452      5.245
REMARK  6 active torsions:
REMARK  status: ('A' for Active; 'I' for Inactive)
REMARK    1  A    between atoms: N1_2  and  C5_8 
REMARK    2  A    between atoms: N2_3  and  C6_9 
REMARK    3  A    between atoms: C5_8  and  C7_10 
REMARK    4  A    between atoms: C5_8  and  C8_11 
REMARK    5  A    between atoms: C6_9  and  C9_12 
REMARK    6  A    between atoms: C10_13  and  C11_14 
ROOT
ATOM      1  N1  UNK     1       0.273  34.450 234.627  1.00  0.00     0.105 N 
ATOM      2  N2  UNK     1       0.378  34.635 231.743  1.00  0.00     0.096 N 
ATOM      3  C1  UNK     1       1.392  35.112 233.946  1.00  0.00     0.304 C 
ATOM      4  C2  UNK     1      -0.296  33.399 233.774  1.00  0.00     0.304 C 
ATOM      5  C3  UNK     1       0.948  35.686 232.596  1.00  0.00     0.303 C 
ATOM      6  C4  UNK     1      -0.741  33.972 232.424  1.00  0.00     0.303 C 
ENDROOT
BRANCH   1   7
ATOM      7  C5  UNK     1       0.698  33.902 235.913  1.00  0.00     0.289 C 
BRANCH   7   8
ATOM      8  C7  UNK     1       1.798  34.731 236.561  1.00  0.00    -0.021 A 
ATOM      9  C14 UNK     1       3.065  34.196 236.661  1.00  0.00     0.011 A 
ATOM     10  C23 UNK     1       4.073  34.955 237.256  1.00  0.00     0.024 A 
ATOM     11  C27 UNK     1       3.791  36.234 237.737  1.00  0.00     0.034 A 
ATOM     12 Cl1  UNK     1       5.034  37.170 238.471  1.00  0.00    -0.084 Cl
ATOM     13  C24 UNK     1       2.502  36.753 237.623  1.00  0.00     0.024 A 
ATOM     14  C15 UNK     1       1.494  35.993 237.029  1.00  0.00     0.011 A 
ENDBRANCH   7   8
BRANCH   7  15
ATOM     15  C8  UNK     1      -0.470  33.672 236.860  1.00  0.00    -0.021 A 
ATOM     16  C16 UNK     1      -0.450  32.569 237.689  1.00  0.00     0.010 A 
ATOM     17  C25 UNK     1      -1.520  32.357 238.558  1.00  0.00     0.001 A 
ATOM     18  C28 UNK     1      -2.589  33.254 238.579  1.00  0.00     0.000 A 
ATOM     19  C26 UNK     1      -2.586  34.361 237.731  1.00  0.00     0.001 A 
ATOM     20  C17 UNK     1      -1.516  34.573 236.862  1.00  0.00     0.010 A 
ENDBRANCH   7  15
ENDBRANCH   1   7
BRANCH   2  21
ATOM     21  C6  UNK     1      -0.050  35.184 230.458  1.00  0.00     0.311 C 
BRANCH  21  22
ATOM     22  C9  UNK     1       0.415  34.337 229.303  1.00  0.00    -0.030 A 
ATOM     23  C12 UNK     1      -0.383  33.293 228.858  1.00  0.00     0.009 A 
ATOM     24  C18 UNK     1       0.048  32.507 227.788  1.00  0.00     0.008 A 
ATOM     25  C11 UNK     1       1.273  32.773 227.176  1.00  0.00    -0.051 A 
ATOM     26  C19 UNK     1       2.067  33.825 227.634  1.00  0.00     0.008 A 
ATOM     27  C13 UNK     1       1.635  34.611 228.703  1.00  0.00     0.009 A 
BRANCH  25  28
ATOM     28  C10 UNK     1       1.734  31.933 226.034  1.00  0.00    -0.024 C 
ATOM     29  C20 UNK     1       0.679  30.922 225.475  1.00  0.00     0.019 C 
ATOM     30  C21 UNK     1       2.151  32.814 224.815  1.00  0.00     0.019 C 
ATOM     31  C22 UNK     1       2.970  31.067 226.433  1.00  0.00     0.019 C 
ENDBRANCH  25  28
ENDBRANCH  21  22
ENDBRANCH   2  21
TORSDOF 6
ENDMDL
MODEL 9
REMARK VINA RESULT:      -6.9      3.621      9.762
REMARK  6 active torsions:
REMARK  status: ('A' for Active; 'I' for Inactive)
REMARK    1  A    between atoms: N1_2  and  C5_8 
REMARK    2  A    between atoms: N2_3  and  C6_9 
REMARK    3  A    between atoms: C5_8  and  C7_10 
REMARK    4  A    between atoms: C5_8  and  C8_11 
REMARK    5  A    between atoms: C6_9  and  C9_12 
REMARK    6  A    between atoms: C10_13  and  C11_14 
ROOT
ATOM      1  N1  UNK     1      -0.308  35.150 230.749  1.00  0.00     0.105 N 
ATOM      2  N2  UNK     1       0.532  34.797 233.493  1.00  0.00     0.096 N 
ATOM      3  C1  UNK     1      -1.277  34.858 231.811  1.00  0.00     0.304 C 
ATOM      4  C2  UNK     1       1.001  34.571 231.077  1.00  0.00     0.304 C 
ATOM      5  C3  UNK     1      -0.778  35.375 233.164  1.00  0.00     0.303 C 
ATOM      6  C4  UNK     1       1.502  35.088 232.430  1.00  0.00     0.303 C 
ENDROOT
BRANCH   1   7
ATOM      7  C5  UNK     1      -0.785  34.655 229.459  1.00  0.00     0.289 C 
BRANCH   7   8
ATOM      8  C7  UNK     1      -1.756  35.620 228.792  1.00  0.00    -0.021 A 
ATOM      9  C14 UNK     1      -1.656  36.967 229.072  1.00  0.00     0.011 A 
ATOM     10  C23 UNK     1      -2.547  37.850 228.463  1.00  0.00     0.024 A 
ATOM     11  C27 UNK     1      -3.518  37.367 227.586  1.00  0.00     0.034 A 
ATOM     12 Cl1  UNK     1      -4.618  38.457 226.835  1.00  0.00    -0.084 Cl
ATOM     13  C24 UNK     1      -3.599  36.001 227.319  1.00  0.00     0.024 A 
ATOM     14  C15 UNK     1      -2.709  35.117 227.929  1.00  0.00     0.011 A 
ENDBRANCH   7   8
BRANCH   7  15
ATOM     15  C8  UNK     1       0.354  34.267 228.529  1.00  0.00    -0.021 A 
ATOM     16  C16 UNK     1       1.205  35.252 228.068  1.00  0.00     0.010 A 
ATOM     17  C25 UNK     1       2.250  34.896 227.216  1.00  0.00     0.001 A 
ATOM     18  C28 UNK     1       2.423  33.563 226.842  1.00  0.00     0.000 A 
ATOM     19  C26 UNK     1       1.549  32.587 227.320  1.00  0.00     0.001 A 
ATOM     20  C17 UNK     1       0.504  32.942 228.173  1.00  0.00     0.010 A 
ENDBRANCH   7  15
ENDBRANCH   1   7
BRANCH   2  21
ATOM     21  C6  UNK     1       1.010  35.294 234.781  1.00  0.00     0.311 C 
BRANCH  21  22
ATOM     22  C9  UNK     1       1.866  34.279 235.491  1.00  0.00    -0.030 A 
ATOM     23  C12 UNK     1       3.047  34.685 236.096  1.00  0.00     0.009 A 
ATOM     24  C18 UNK     1       3.840  33.743 236.753  1.00  0.00     0.008 A 
ATOM     25  C11 UNK     1       3.444  32.407 236.799  1.00  0.00    -0.051 A 
ATOM     26  C19 UNK     1       2.254  32.011 236.187  1.00  0.00     0.008 A 
ATOM     27  C13 UNK     1       1.461  32.953 235.530  1.00  0.00     0.009 A 
BRANCH  25  28
ATOM     28  C10 UNK     1       4.292  31.401 237.501  1.00  0.00    -0.024 C 
ATOM     29  C20 UNK     1       5.256  31.979 238.590  1.00  0.00     0.019 C 
ATOM     30  C21 UNK     1       3.418  30.341 238.240  1.00  0.00     0.019 C 
ATOM     31  C22 UNK     1       5.210  30.637 236.496  1.00  0.00     0.019 C 
ENDBRANCH  25  28
ENDBRANCH  21  22
ENDBRANCH   2  21
TORSDOF 6
ENDMDL
