MODEL 1
REMARK VINA RESULT:      -6.3      0.000      0.000
REMARK  5 active torsions:
REMARK  status: ('A' for Active; 'I' for Inactive)
REMARK    1  A    between atoms: C1_1  and  C9_13 
REMARK    2  A    between atoms: N1_11  and  C15_19 
REMARK    3  A    between atoms: C9_13  and  C10_14 
REMARK    4  A    between atoms: C10_14  and  C13_17 
REMARK    5  A    between atoms: C13_17  and  C15_19 
ROOT
ATOM      1  C2  UNK     1       2.243  34.256 237.874  1.00  0.00     0.012 A 
ATOM      2  C4  UNK     1       3.452  34.340 238.798  1.00  0.00     0.023 A 
ATOM      3  C8  UNK     1       5.336  35.756 239.966  1.00  0.00     0.099 C 
ATOM      4  O1  UNK     1       0.510  37.168 235.912  1.00  0.00    -0.366 OA
ATOM      5  N2  UNK     1       6.261  35.831 240.670  1.00  0.00    -0.191 NA
ATOM      6  C9  UNK     1       0.524  35.776 236.218  1.00  0.00     0.116 A 
ATOM      7  C11 UNK     1       1.685  35.525 237.173  1.00  0.00    -0.011 A 
ATOM      8  C12 UNK     1       2.349  36.824 237.415  1.00  0.00    -0.023 A 
ATOM      9  C14 UNK     1       1.623  37.839 236.641  1.00  0.00     0.209 A 
ATOM     10  C16 UNK     1       3.578  36.914 238.354  1.00  0.00     0.032 A 
ATOM     11  C18 UNK     1       4.119  35.662 239.039  1.00  0.00     0.045 A 
ENDROOT
BRANCH   6  12
ATOM     12  C1  UNK     1       0.681  35.037 234.920  1.00  0.00    -0.019 A 
ATOM     13  C3  UNK     1       1.012  35.822 233.645  1.00  0.00     0.013 A 
ATOM     14  C19 UNK     1       1.174  35.092 232.301  1.00  0.00     0.043 A 
ATOM     15  C6  UNK     1       1.002  33.585 232.234  1.00  0.00     0.116 A 
ATOM     16  C5  UNK     1       0.669  32.795 233.499  1.00  0.00     0.043 A 
ATOM     17  F1  UNK     1       1.145  32.944 231.063  1.00  0.00    -0.206 F 
ATOM     18  C17 UNK     1       0.506  33.531 234.839  1.00  0.00     0.013 A 
ENDBRANCH   6  12
BRANCH   6  19
ATOM     19  C10 UNK     1      -0.841  35.385 236.834  1.00  0.00     0.050 C 
BRANCH  19  20
ATOM     20  C13 UNK     1      -2.044  35.877 235.996  1.00  0.00     0.034 C 
BRANCH  20  21
ATOM     21  C15 UNK     1      -2.970  34.697 235.689  1.00  0.00     0.271 C 
BRANCH  21  22
ATOM     22  N1  UNK     1      -2.976  34.382 234.278  1.00  0.00     0.080 N 
ATOM     23  C7  UNK     1      -2.734  35.600 233.464  1.00  0.00     0.309 C 
ATOM     24  C20 UNK     1      -4.219  33.753 233.899  1.00  0.00     0.309 C 
ENDBRANCH  21  22
ENDBRANCH  20  21
ENDBRANCH  19  20
ENDBRANCH   6  19
TORSDOF 5
ENDMDL
MODEL 2
REMARK VINA RESULT:      -6.1      2.925      6.979
REMARK  5 active torsions:
REMARK  status: ('A' for Active; 'I' for Inactive)
REMARK    1  A    between atoms: C1_1  and  C9_13 
REMARK    2  A    between atoms: N1_11  and  C15_19 
REMARK    3  A    between atoms: C9_13  and  C10_14 
REMARK    4  A    between atoms: C10_14  and  C13_17 
REMARK    5  A    between atoms: C13_17  and  C15_19 
ROOT
ATOM      1  C2  UNK     1       1.058  32.540 233.175  1.00  0.00     0.012 A 
ATOM      2  C4  UNK     1       0.845  32.412 231.672  1.00  0.00     0.023 A 
ATOM      3  C8  UNK     1       0.678  33.515 229.289  1.00  0.00     0.099 C 
ATOM      4  O1  UNK     1       1.750  35.797 235.236  1.00  0.00    -0.366 OA
ATOM      5  N2  UNK     1       0.516  33.427 228.140  1.00  0.00    -0.191 NA
ATOM      6  C9  UNK     1       1.572  34.383 235.260  1.00  0.00     0.116 A 
ATOM      7  C11 UNK     1       1.324  33.925 233.828  1.00  0.00    -0.011 A 
ATOM      8  C12 UNK     1       1.366  35.125 232.965  1.00  0.00    -0.023 A 
ATOM      9  C14 UNK     1       1.632  36.279 233.831  1.00  0.00     0.209 A 
ATOM     10  C16 UNK     1       1.151  34.998 231.435  1.00  0.00     0.032 A 
ATOM     11  C18 UNK     1       0.891  33.634 230.803  1.00  0.00     0.045 A 
ENDROOT
BRANCH   6  12
ATOM     12  C1  UNK     1       0.405  34.099 236.162  1.00  0.00    -0.019 A 
ATOM     13  C3  UNK     1      -0.812  35.031 236.133  1.00  0.00     0.013 A 
ATOM     14  C19 UNK     1      -2.018  34.766 237.049  1.00  0.00     0.043 A 
ATOM     15  C6  UNK     1      -2.004  33.576 237.992  1.00  0.00     0.116 A 
ATOM     16  C5  UNK     1      -0.794  32.643 238.030  1.00  0.00     0.043 A 
ATOM     17  F1  UNK     1      -3.057  33.340 238.791  1.00  0.00    -0.206 F 
ATOM     18  C17 UNK     1       0.409  32.914 237.114  1.00  0.00     0.013 A 
ENDBRANCH   6  12
BRANCH   6  19
ATOM     19  C10 UNK     1       2.831  33.730 235.879  1.00  0.00     0.050 C 
BRANCH  19  20
ATOM     20  C13 UNK     1       3.804  34.761 236.498  1.00  0.00     0.034 C 
BRANCH  20  21
ATOM     21  C15 UNK     1       3.674  34.735 238.023  1.00  0.00     0.271 C 
BRANCH  21  22
ATOM     22  N1  UNK     1       3.812  36.058 238.590  1.00  0.00     0.080 N 
ATOM     23  C7  UNK     1       4.159  37.048 237.539  1.00  0.00     0.309 C 
ATOM     24  C20 UNK     1       4.799  36.064 239.643  1.00  0.00     0.309 C 
ENDBRANCH  21  22
ENDBRANCH  20  21
ENDBRANCH  19  20
ENDBRANCH   6  19
TORSDOF 5
ENDMDL
MODEL 3
REMARK VINA RESULT:      -6.0      3.369      5.538
REMARK  5 active torsions:
REMARK  status: ('A' for Active; 'I' for Inactive)
REMARK    1  A    between atoms: C1_1  and  C9_13 
REMARK    2  A    between atoms: N1_11  and  C15_19 
REMARK    3  A    between atoms: C9_13  and  C10_14 
REMARK    4  A    between atoms: C10_14  and  C13_17 
REMARK    5  A    between atoms: C13_17  and  C15_19 
ROOT
ATOM      1  C2  UNK     1       0.169  33.006 237.189  1.00  0.00     0.012 A 
ATOM      2  C4  UNK     1      -0.965  32.235 237.853  1.00  0.00     0.023 A 
ATOM      3  C8  UNK     1      -3.430  32.140 238.768  1.00  0.00     0.099 C 
ATOM      4  O1  UNK     1       0.148  36.719 235.948  1.00  0.00    -0.366 OA
ATOM      5  N2  UNK     1      -4.302  31.559 239.275  1.00  0.00    -0.191 NA
ATOM      6  C9  UNK     1       0.890  35.510 236.087  1.00  0.00     0.116 A 
ATOM      7  C11 UNK     1      -0.018  34.486 236.757  1.00  0.00    -0.011 A 
ATOM      8  C12 UNK     1      -1.320  35.142 237.005  1.00  0.00    -0.023 A 
ATOM      9  C14 UNK     1      -1.220  36.518 236.503  1.00  0.00     0.209 A 
ATOM     10  C16 UNK     1      -2.476  34.361 237.680  1.00  0.00     0.032 A 
ATOM     11  C18 UNK     1      -2.283  32.907 238.100  1.00  0.00     0.045 A 
ENDROOT
BRANCH   6  12
ATOM     12  C1  UNK     1       2.104  35.826 236.913  1.00  0.00    -0.019 A 
ATOM     13  C3  UNK     1       2.739  37.218 236.812  1.00  0.00     0.013 A 
ATOM     14  C19 UNK     1       3.985  37.568 237.643  1.00  0.00     0.043 A 
ATOM     15  C6  UNK     1       4.593  36.528 238.566  1.00  0.00     0.116 A 
ATOM     16  C5  UNK     1       3.969  35.137 238.671  1.00  0.00     0.043 A 
ATOM     17  F1  UNK     1       5.680  36.831 239.295  1.00  0.00    -0.206 F 
ATOM     18  C17 UNK     1       2.725  34.793 237.836  1.00  0.00     0.013 A 
ENDBRANCH   6  12
BRANCH   6  19
ATOM     19  C10 UNK     1       1.364  35.051 234.687  1.00  0.00     0.050 C 
BRANCH  19  20
ATOM     20  C13 UNK     1       0.890  35.987 233.551  1.00  0.00     0.034 C 
BRANCH  20  21
ATOM     21  C15 UNK     1      -0.322  35.368 232.851  1.00  0.00     0.271 C 
BRANCH  21  22
ATOM     22  N1  UNK     1      -1.443  36.282 232.824  1.00  0.00     0.080 N 
ATOM     23  C7  UNK     1      -2.686  35.605 233.272  1.00  0.00     0.309 C 
ATOM     24  C20 UNK     1      -1.614  36.844 231.506  1.00  0.00     0.309 C 
ENDBRANCH  21  22
ENDBRANCH  20  21
ENDBRANCH  19  20
ENDBRANCH   6  19
TORSDOF 5
ENDMDL
MODEL 4
REMARK VINA RESULT:      -5.9      2.633      3.766
REMARK  5 active torsions:
REMARK  status: ('A' for Active; 'I' for Inactive)
REMARK    1  A    between atoms: C1_1  and  C9_13 
REMARK    2  A    between atoms: N1_11  and  C15_19 
REMARK    3  A    between atoms: C9_13  and  C10_14 
REMARK    4  A    between atoms: C10_14  and  C13_17 
REMARK    5  A    between atoms: C13_17  and  C15_19 
ROOT
ATOM      1  C2  UNK     1       1.504  32.197 234.301  1.00  0.00     0.012 A 
ATOM      2  C4  UNK     1       2.521  31.686 235.315  1.00  0.00     0.023 A 
ATOM      3  C8  UNK     1       4.403  32.154 237.092  1.00  0.00     0.099 C 
ATOM      4  O1  UNK     1       0.748  35.910 233.316  1.00  0.00    -0.366 OA
ATOM      5  N2  UNK     1       5.183  31.774 237.868  1.00  0.00    -0.191 NA
ATOM      6  C9  UNK     1       0.437  34.533 233.116  1.00  0.00     0.116 A 
ATOM      7  C11 UNK     1       1.337  33.718 234.036  1.00  0.00    -0.011 A 
ATOM      8  C12 UNK     1       2.186  34.670 234.784  1.00  0.00    -0.023 A 
ATOM      9  C14 UNK     1       1.821  36.022 234.344  1.00  0.00     0.209 A 
ATOM     10  C16 UNK     1       3.220  34.155 235.817  1.00  0.00     0.032 A 
ATOM     11  C18 UNK     1       3.377  32.658 236.070  1.00  0.00     0.045 A 
ENDROOT
BRANCH   6  12
ATOM     12  C1  UNK     1       0.678  34.232 231.664  1.00  0.00    -0.019 A 
ATOM     13  C3  UNK     1       0.151  32.919 231.072  1.00  0.00     0.013 A 
ATOM     14  C19 UNK     1       0.388  32.583 229.590  1.00  0.00     0.043 A 
ATOM     15  C6  UNK     1       1.151  33.554 228.708  1.00  0.00     0.116 A 
ATOM     16  C5  UNK     1       1.683  34.863 229.290  1.00  0.00     0.043 A 
ATOM     17  F1  UNK     1       1.357  33.265 227.413  1.00  0.00    -0.206 F 
ATOM     18  C17 UNK     1       1.446  35.192 230.772  1.00  0.00     0.013 A 
ENDBRANCH   6  12
BRANCH   6  19
ATOM     19  C10 UNK     1      -1.066  34.311 233.412  1.00  0.00     0.050 C 
BRANCH  19  20
ATOM     20  C13 UNK     1      -1.751  35.556 234.024  1.00  0.00     0.034 C 
BRANCH  20  21
ATOM     21  C15 UNK     1      -2.476  35.158 235.312  1.00  0.00     0.271 C 
BRANCH  21  22
ATOM     22  N1  UNK     1      -1.817  35.699 236.480  1.00  0.00     0.080 N 
ATOM     23  C7  UNK     1      -1.207  37.019 236.177  1.00  0.00     0.309 C 
ATOM     24  C20 UNK     1      -0.822  34.779 236.979  1.00  0.00     0.309 C 
ENDBRANCH  21  22
ENDBRANCH  20  21
ENDBRANCH  19  20
ENDBRANCH   6  19
TORSDOF 5
ENDMDL
MODEL 5
REMARK VINA RESULT:      -5.7      3.530      6.137
REMARK  5 active torsions:
REMARK  status: ('A' for Active; 'I' for Inactive)
REMARK    1  A    between atoms: C1_1  and  C9_13 
REMARK    2  A    between atoms: N1_11  and  C15_19 
REMARK    3  A    between atoms: C9_13  and  C10_14 
REMARK    4  A    between atoms: C10_14  and  C13_17 
REMARK    5  A    between atoms: C13_17  and  C15_19 
ROOT
ATOM      1  C2  UNK     1       0.284  35.413 232.836  1.00  0.00     0.012 A 
ATOM      2  C4  UNK     1       0.407  35.121 231.346  1.00  0.00     0.023 A 
ATOM      3  C8  UNK     1       0.884  33.437 229.382  1.00  0.00     0.099 C 
ATOM      4  O1  UNK     1       0.779  32.926 235.820  1.00  0.00    -0.366 OA
ATOM      5  N2  UNK     1       0.981  33.205 228.245  1.00  0.00    -0.191 NA
ATOM      6  C9  UNK     1       0.470  34.257 235.412  1.00  0.00     0.116 A 
ATOM      7  C11 UNK     1       0.516  34.294 233.889  1.00  0.00    -0.011 A 
ATOM      8  C12 UNK     1       0.863  32.935 233.422  1.00  0.00    -0.023 A 
ATOM      9  C14 UNK     1       1.021  32.089 234.611  1.00  0.00     0.209 A 
ATOM     10  C16 UNK     1       0.988  32.634 231.907  1.00  0.00     0.032 A 
ATOM     11  C18 UNK     1       0.758  33.740 230.880  1.00  0.00     0.045 A 
ENDROOT
BRANCH   6  12
ATOM     12  C1  UNK     1       1.492  35.161 236.038  1.00  0.00    -0.019 A 
ATOM     13  C3  UNK     1       1.030  36.448 236.733  1.00  0.00     0.013 A 
ATOM     14  C19 UNK     1       2.056  37.395 237.379  1.00  0.00     0.043 A 
ATOM     15  C6  UNK     1       3.535  37.056 237.326  1.00  0.00     0.116 A 
ATOM     16  C5  UNK     1       4.004  35.778 236.634  1.00  0.00     0.043 A 
ATOM     17  F1  UNK     1       4.432  37.880 237.892  1.00  0.00    -0.206 F 
ATOM     18  C17 UNK     1       2.975  34.837 235.988  1.00  0.00     0.013 A 
ENDBRANCH   6  12
BRANCH   6  19
ATOM     19  C10 UNK     1      -0.922  34.641 235.970  1.00  0.00     0.050 C 
BRANCH  19  20
ATOM     20  C13 UNK     1      -2.070  33.807 235.354  1.00  0.00     0.034 C 
BRANCH  20  21
ATOM     21  C15 UNK     1      -3.173  34.745 234.858  1.00  0.00     0.271 C 
BRANCH  21  22
ATOM     22  N1  UNK     1      -3.606  34.395 233.523  1.00  0.00     0.080 N 
ATOM     23  C7  UNK     1      -2.878  33.198 233.030  1.00  0.00     0.309 C 
ATOM     24  C20 UNK     1      -3.432  35.508 232.620  1.00  0.00     0.309 C 
ENDBRANCH  21  22
ENDBRANCH  20  21
ENDBRANCH  19  20
ENDBRANCH   6  19
TORSDOF 5
ENDMDL
MODEL 6
REMARK VINA RESULT:      -5.7      2.130      3.222
REMARK  5 active torsions:
REMARK  status: ('A' for Active; 'I' for Inactive)
REMARK    1  A    between atoms: C1_1  and  C9_13 
REMARK    2  A    between atoms: N1_11  and  C15_19 
REMARK    3  A    between atoms: C9_13  and  C10_14 
REMARK    4  A    between atoms: C10_14  and  C13_17 
REMARK    5  A    between atoms: C13_17  and  C15_19 
ROOT
ATOM      1  C2  UNK     1       2.682  33.871 235.252  1.00  0.00     0.012 A 
ATOM      2  C4  UNK     1       3.698  34.555 236.159  1.00  0.00     0.023 A 
ATOM      3  C8  UNK     1       4.394  36.581 237.685  1.00  0.00     0.099 C 
ATOM      4  O1  UNK     1      -0.869  35.159 234.221  1.00  0.00    -0.366 OA
ATOM      5  N2  UNK     1       5.164  37.111 238.379  1.00  0.00    -0.191 NA
ATOM      6  C9  UNK     1       0.106  34.125 234.111  1.00  0.00     0.116 A 
ATOM      7  C11 UNK     1       1.309  34.534 234.950  1.00  0.00    -0.011 A 
ATOM      8  C12 UNK     1       1.002  35.847 235.557  1.00  0.00    -0.023 A 
ATOM      9  C14 UNK     1      -0.343  36.232 235.112  1.00  0.00     0.209 A 
ATOM     10  C16 UNK     1       2.032  36.545 236.481  1.00  0.00     0.032 A 
ATOM     11  C18 UNK     1       3.378  35.886 236.772  1.00  0.00     0.045 A 
ENDROOT
BRANCH   6  12
ATOM     12  C1  UNK     1       0.443  33.988 232.654  1.00  0.00    -0.019 A 
ATOM     13  C3  UNK     1       0.097  32.686 231.922  1.00  0.00     0.013 A 
ATOM     14  C19 UNK     1       0.436  32.517 230.431  1.00  0.00     0.043 A 
ATOM     15  C6  UNK     1       1.120  33.644 229.679  1.00  0.00     0.116 A 
ATOM     16  C5  UNK     1       1.472  34.944 230.401  1.00  0.00     0.043 A 
ATOM     17  F1  UNK     1       1.415  33.500 228.377  1.00  0.00    -0.206 F 
ATOM     18  C17 UNK     1       1.133  35.106 231.891  1.00  0.00     0.013 A 
ENDBRANCH   6  12
BRANCH   6  19
ATOM     19  C10 UNK     1      -0.522  32.793 234.589  1.00  0.00     0.050 C 
BRANCH  19  20
ATOM     20  C13 UNK     1      -0.445  32.605 236.122  1.00  0.00     0.034 C 
BRANCH  20  21
ATOM     21  C15 UNK     1      -1.856  32.653 236.713  1.00  0.00     0.271 C 
BRANCH  21  22
ATOM     22  N1  UNK     1      -1.933  33.574 237.826  1.00  0.00     0.080 N 
ATOM     23  C7  UNK     1      -2.587  32.935 238.996  1.00  0.00     0.309 C 
ATOM     24  C20 UNK     1      -2.632  34.779 237.445  1.00  0.00     0.309 C 
ENDBRANCH  21  22
ENDBRANCH  20  21
ENDBRANCH  19  20
ENDBRANCH   6  19
TORSDOF 5
ENDMDL
MODEL 7
REMARK VINA RESULT:      -5.7      2.421      5.561
REMARK  5 active torsions:
REMARK  status: ('A' for Active; 'I' for Inactive)
REMARK    1  A    between atoms: C1_1  and  C9_13 
REMARK    2  A    between atoms: N1_11  and  C15_19 
REMARK    3  A    between atoms: C9_13  and  C10_14 
REMARK    4  A    between atoms: C10_14  and  C13_17 
REMARK    5  A    between atoms: C13_17  and  C15_19 
ROOT
ATOM      1  C2  UNK     1      -1.602  35.437 236.453  1.00  0.00     0.012 A 
ATOM      2  C4  UNK     1      -2.436  34.637 237.446  1.00  0.00     0.023 A 
ATOM      3  C8  UNK     1      -2.728  32.545 239.015  1.00  0.00     0.099 C 
ATOM      4  O1  UNK     1       1.969  34.597 235.083  1.00  0.00    -0.366 OA
ATOM      5  N2  UNK     1      -3.357  31.926 239.774  1.00  0.00    -0.191 NA
ATOM      6  C9  UNK     1       0.867  35.502 235.073  1.00  0.00     0.116 A 
ATOM      7  C11 UNK     1      -0.192  34.950 236.019  1.00  0.00    -0.011 A 
ATOM      8  C12 UNK     1       0.331  33.687 236.584  1.00  0.00    -0.023 A 
ATOM      9  C14 UNK     1       1.665  33.471 236.011  1.00  0.00     0.209 A 
ATOM     10  C16 UNK     1      -0.513  32.870 237.595  1.00  0.00     0.032 A 
ATOM     11  C18 UNK     1      -1.897  33.358 238.015  1.00  0.00     0.045 A 
ENDROOT
BRANCH   6  12
ATOM     12  C1  UNK     1       0.379  35.590 233.655  1.00  0.00    -0.019 A 
ATOM     13  C3  UNK     1       1.165  34.883 232.545  1.00  0.00     0.013 A 
ATOM     14  C19 UNK     1       0.691  34.961 231.084  1.00  0.00     0.043 A 
ATOM     15  C6  UNK     1      -0.562  35.746 230.737  1.00  0.00     0.116 A 
ATOM     16  C5  UNK     1      -1.350  36.456 231.837  1.00  0.00     0.043 A 
ATOM     17  F1  UNK     1      -0.980  35.813 229.463  1.00  0.00    -0.206 F 
ATOM     18  C17 UNK     1      -0.869  36.376 233.294  1.00  0.00     0.013 A 
ENDBRANCH   6  12
BRANCH   6  19
ATOM     19  C10 UNK     1       1.367  36.903 235.500  1.00  0.00     0.050 C 
BRANCH  19  20
ATOM     20  C13 UNK     1       1.685  36.996 237.011  1.00  0.00     0.034 C 
BRANCH  20  21
ATOM     21  C15 UNK     1       3.133  37.454 237.200  1.00  0.00     0.271 C 
BRANCH  21  22
ATOM     22  N1  UNK     1       3.955  36.400 237.753  1.00  0.00     0.080 N 
ATOM     23  C7  UNK     1       3.123  35.414 238.489  1.00  0.00     0.309 C 
ATOM     24  C20 UNK     1       4.980  36.945 238.610  1.00  0.00     0.309 C 
ENDBRANCH  21  22
ENDBRANCH  20  21
ENDBRANCH  19  20
ENDBRANCH   6  19
TORSDOF 5
ENDMDL
MODEL 8
REMARK VINA RESULT:      -5.6      6.412      9.513
REMARK  5 active torsions:
REMARK  status: ('A' for Active; 'I' for Inactive)
REMARK    1  A    between atoms: C1_1  and  C9_13 
REMARK    2  A    between atoms: N1_11  and  C15_19 
REMARK    3  A    between atoms: C9_13  and  C10_14 
REMARK    4  A    between atoms: C10_14  and  C13_17 
REMARK    5  A    between atoms: C13_17  and  C15_19 
ROOT
ATOM      1  C2  UNK     1      -1.046  36.945 228.568  1.00  0.00     0.012 A 
ATOM      2  C4  UNK     1      -1.227  38.455 228.467  1.00  0.00     0.023 A 
ATOM      3  C8  UNK     1      -0.284  40.829 227.838  1.00  0.00     0.099 C 
ATOM      4  O1  UNK     1       2.102  34.832 227.591  1.00  0.00    -0.366 OA
ATOM      5  N2  UNK     1      -0.412  41.983 227.758  1.00  0.00    -0.191 NA
ATOM      6  C9  UNK     1       0.772  34.828 228.102  1.00  0.00     0.116 A 
ATOM      7  C11 UNK     1       0.283  36.271 228.130  1.00  0.00    -0.011 A 
ATOM      8  C12 UNK     1       1.379  37.120 227.614  1.00  0.00    -0.023 A 
ATOM      9  C14 UNK     1       2.500  36.234 227.278  1.00  0.00     0.209 A 
ATOM     10  C16 UNK     1       1.199  38.656 227.510  1.00  0.00     0.032 A 
ATOM     11  C18 UNK     1      -0.111  39.309 227.942  1.00  0.00     0.045 A 
ENDROOT
BRANCH   6  12
ATOM     12  C1  UNK     1       0.825  34.215 229.472  1.00  0.00    -0.019 A 
ATOM     13  C3  UNK     1       0.509  32.724 229.641  1.00  0.00     0.013 A 
ATOM     14  C19 UNK     1       0.552  32.072 231.033  1.00  0.00     0.043 A 
ATOM     15  C6  UNK     1       0.906  32.909 232.249  1.00  0.00     0.116 A 
ATOM     16  C5  UNK     1       1.220  34.396 232.091  1.00  0.00     0.043 A 
ATOM     17  F1  UNK     1       0.947  32.342 233.466  1.00  0.00    -0.206 F 
ATOM     18  C17 UNK     1       1.173  35.042 230.698  1.00  0.00     0.013 A 
ENDBRANCH   6  12
BRANCH   6  19
ATOM     19  C10 UNK     1      -0.107  33.924 227.203  1.00  0.00     0.050 C 
BRANCH  19  20
ATOM     20  C13 UNK     1       0.629  33.438 225.933  1.00  0.00     0.034 C 
BRANCH  20  21
ATOM     21  C15 UNK     1       0.465  31.922 225.796  1.00  0.00     0.271 C 
BRANCH  21  22
ATOM     22  N1  UNK     1       1.707  31.287 225.413  1.00  0.00     0.080 N 
ATOM     23  C7  UNK     1       2.708  31.383 226.506  1.00  0.00     0.309 C 
ATOM     24  C20 UNK     1       2.223  31.866 224.195  1.00  0.00     0.309 C 
ENDBRANCH  21  22
ENDBRANCH  20  21
ENDBRANCH  19  20
ENDBRANCH   6  19
TORSDOF 5
ENDMDL
MODEL 9
REMARK VINA RESULT:      -5.6      4.266      7.280
REMARK  5 active torsions:
REMARK  status: ('A' for Active; 'I' for Inactive)
REMARK    1  A    between atoms: C1_1  and  C9_13 
REMARK    2  A    between atoms: N1_11  and  C15_19 
REMARK    3  A    between atoms: C9_13  and  C10_14 
REMARK    4  A    between atoms: C10_14  and  C13_17 
REMARK    5  A    between atoms: C13_17  and  C15_19 
ROOT
ATOM      1  C2  UNK     1       1.295  35.066 230.578  1.00  0.00     0.012 A 
ATOM      2  C4  UNK     1       1.718  34.980 229.116  1.00  0.00     0.023 A 
ATOM      3  C8  UNK     1       1.808  33.662 226.841  1.00  0.00     0.099 C 
ATOM      4  O1  UNK     1      -0.653  32.397 232.678  1.00  0.00    -0.366 OA
ATOM      5  N2  UNK     1       2.127  33.587 225.724  1.00  0.00    -0.191 NA
ATOM      6  C9  UNK     1      -0.033  33.680 232.656  1.00  0.00     0.116 A 
ATOM      7  C11 UNK     1       0.520  33.902 231.254  1.00  0.00    -0.011 A 
ATOM      8  C12 UNK     1       0.200  32.699 230.455  1.00  0.00    -0.023 A 
ATOM      9  C14 UNK     1      -0.527  31.772 231.330  1.00  0.00     0.209 A 
ATOM     10  C16 UNK     1       0.627  32.608 228.968  1.00  0.00     0.032 A 
ATOM     11  C18 UNK     1       1.387  33.758 228.312  1.00  0.00     0.045 A 
ENDROOT
BRANCH   6  12
ATOM     12  C1  UNK     1       1.045  33.669 233.702  1.00  0.00    -0.019 A 
ATOM     13  C3  UNK     1       1.531  34.997 234.294  1.00  0.00     0.013 A 
ATOM     14  C19 UNK     1       2.636  35.015 235.363  1.00  0.00     0.043 A 
ATOM     15  C6  UNK     1       3.254  33.711 235.833  1.00  0.00     0.116 A 
ATOM     16  C5  UNK     1       2.779  32.383 235.246  1.00  0.00     0.043 A 
ATOM     17  F1  UNK     1       4.218  33.723 236.768  1.00  0.00    -0.206 F 
ATOM     18  C17 UNK     1       1.676  32.371 234.177  1.00  0.00     0.013 A 
ENDBRANCH   6  12
BRANCH   6  19
ATOM     19  C10 UNK     1      -1.080  34.749 233.053  1.00  0.00     0.050 C 
BRANCH  19  20
ATOM     20  C13 UNK     1      -2.237  34.868 232.034  1.00  0.00     0.034 C 
BRANCH  20  21
ATOM     21  C15 UNK     1      -2.433  36.337 231.652  1.00  0.00     0.271 C 
BRANCH  21  22
ATOM     22  N1  UNK     1      -2.567  36.500 230.222  1.00  0.00     0.080 N 
ATOM     23  C7  UNK     1      -2.511  35.185 229.534  1.00  0.00     0.309 C 
ATOM     24  C20 UNK     1      -1.551  37.389 229.710  1.00  0.00     0.309 C 
ENDBRANCH  21  22
ENDBRANCH  20  21
ENDBRANCH  19  20
ENDBRANCH   6  19
TORSDOF 5
ENDMDL
