MODEL 1
REMARK VINA RESULT:      -7.1      0.000      0.000
REMARK  4 active torsions:
REMARK  status: ('A' for Active; 'I' for Inactive)
REMARK    1  A    between atoms: N1_6  and  N3_8 
REMARK    2  A    between atoms: N4_10  and  C12_22 
REMARK    3  A    between atoms: C2_12  and  C3_13 
REMARK    4  A    between atoms: C4_14  and  C11_21 
ROOT
ATOM      1  O1  UNK     1       1.319  36.390 228.462  1.00  0.00    -0.309 OA
ATOM      2  C2  UNK     1       1.584  35.078 228.238  1.00  0.00     0.086 A 
ATOM      3  C4  UNK     1       1.750  37.061 227.362  1.00  0.00     0.093 A 
ATOM      4  C7  UNK     1       2.177  34.899 227.015  1.00  0.00     0.041 A 
ATOM      5  C8  UNK     1       2.287  36.188 226.444  1.00  0.00     0.041 A 
ENDROOT
BRANCH   3   6
ATOM      6  C11 UNK     1       1.588  38.475 227.338  1.00  0.00     0.144 C 
ATOM      7  N3  UNK     1       2.556  39.300 227.023  1.00  0.00    -0.303 N 
ATOM      8  H3  UNK     1       3.492  38.981 226.772  1.00  0.00     0.186 HD
BRANCH   7   9
ATOM      9  N1  UNK     1       2.217  40.605 227.055  1.00  0.00    -0.234 N 
ATOM     10  C1  UNK     1       1.171  41.153 226.246  1.00  0.00     0.257 A 
ATOM     11  C5  UNK     1       1.239  42.603 226.686  1.00  0.00     0.245 A 
ATOM     12  O2  UNK     1       0.514  43.489 226.256  1.00  0.00    -0.271 OA
ATOM     13  N2  UNK     1       2.235  42.736 227.626  1.00  0.00    -0.276 N 
ATOM     14  C6  UNK     1       2.855  41.527 227.875  1.00  0.00     0.344 A 
ATOM     15  H4  UNK     1       2.483  43.608 228.078  1.00  0.00     0.173 HD
ATOM     16  O3  UNK     1       3.774  41.326 228.657  1.00  0.00    -0.245 OA
ENDBRANCH   7   9
ENDBRANCH   3   6
BRANCH   2  17
ATOM     17  C3  UNK     1       1.196  34.185 229.301  1.00  0.00    -0.002 A 
ATOM     18  C9  UNK     1       0.771  32.890 229.003  1.00  0.00     0.017 A 
ATOM     19  C13 UNK     1       0.394  32.026 230.031  1.00  0.00     0.037 A 
ATOM     20  C12 UNK     1       0.443  32.456 231.357  1.00  0.00     0.102 A 
ATOM     21  C14 UNK     1       0.869  33.751 231.655  1.00  0.00     0.037 A 
ATOM     22  C10 UNK     1       1.244  34.615 230.627  1.00  0.00     0.017 A 
BRANCH  20  23
ATOM     23  N4  UNK     1       0.060  31.576 232.404  1.00  0.00    -0.116 N 
ATOM     24  O4  UNK     1      -0.678  32.008 233.322  1.00  0.00    -0.532 OA
ATOM     25  O5  UNK     1       0.468  30.389 232.381  1.00  0.00    -0.532 OA
ENDBRANCH  20  23
ENDBRANCH   2  17
TORSDOF 4
ENDMDL
MODEL 2
REMARK VINA RESULT:      -6.8      3.799      4.958
REMARK  4 active torsions:
REMARK  status: ('A' for Active; 'I' for Inactive)
REMARK    1  A    between atoms: N1_6  and  N3_8 
REMARK    2  A    between atoms: N4_10  and  C12_22 
REMARK    3  A    between atoms: C2_12  and  C3_13 
REMARK    4  A    between atoms: C4_14  and  C11_21 
ROOT
ATOM      1  O1  UNK     1       1.664  35.589 226.771  1.00  0.00    -0.309 OA
ATOM      2  C2  UNK     1       1.753  34.295 227.168  1.00  0.00     0.086 A 
ATOM      3  C4  UNK     1       1.403  36.315 227.889  1.00  0.00     0.093 A 
ATOM      4  C7  UNK     1       1.553  34.180 228.519  1.00  0.00     0.041 A 
ATOM      5  C8  UNK     1       1.324  35.494 228.990  1.00  0.00     0.041 A 
ENDROOT
BRANCH   3   6
ATOM      6  C11 UNK     1       1.259  37.724 227.751  1.00  0.00     0.144 C 
ATOM      7  N3  UNK     1       1.979  38.438 226.920  1.00  0.00    -0.303 N 
ATOM      8  H3  UNK     1       2.692  38.028 226.317  1.00  0.00     0.186 HD
BRANCH   7   9
ATOM      9  N1  UNK     1       1.704  39.759 226.926  1.00  0.00    -0.234 N 
ATOM     10  C1  UNK     1       0.434  40.285 226.529  1.00  0.00     0.257 A 
ATOM     11  C5  UNK     1       0.696  41.765 226.731  1.00  0.00     0.245 A 
ATOM     12  O2  UNK     1      -0.124  42.647 226.515  1.00  0.00    -0.271 OA
ATOM     13  N2  UNK     1       1.984  41.931 227.187  1.00  0.00    -0.276 N 
ATOM     14  C6  UNK     1       2.630  40.717 227.317  1.00  0.00     0.344 A 
ATOM     15  H4  UNK     1       2.406  42.827 227.399  1.00  0.00     0.173 HD
ATOM     16  O3  UNK     1       3.779  40.539 227.697  1.00  0.00    -0.245 OA
ENDBRANCH   7   9
ENDBRANCH   3   6
BRANCH   2  17
ATOM     17  C3  UNK     1       2.031  33.350 226.114  1.00  0.00    -0.002 A 
ATOM     18  C9  UNK     1       1.928  33.743 224.780  1.00  0.00     0.017 A 
ATOM     19  C13 UNK     1       2.196  32.829 223.761  1.00  0.00     0.037 A 
ATOM     20  C12 UNK     1       2.567  31.522 224.076  1.00  0.00     0.102 A 
ATOM     21  C14 UNK     1       2.670  31.128 225.411  1.00  0.00     0.037 A 
ATOM     22  C10 UNK     1       2.401  32.042 226.430  1.00  0.00     0.017 A 
BRANCH  20  23
ATOM     23  N4  UNK     1       2.840  30.591 223.039  1.00  0.00    -0.116 N 
ATOM     24  O4  UNK     1       1.977  30.404 222.147  1.00  0.00    -0.532 OA
ATOM     25  O5  UNK     1       3.937  29.982 223.041  1.00  0.00    -0.532 OA
ENDBRANCH  20  23
ENDBRANCH   2  17
TORSDOF 4
ENDMDL
MODEL 3
REMARK VINA RESULT:      -6.7      4.001      9.101
REMARK  4 active torsions:
REMARK  status: ('A' for Active; 'I' for Inactive)
REMARK    1  A    between atoms: N1_6  and  N3_8 
REMARK    2  A    between atoms: N4_10  and  C12_22 
REMARK    3  A    between atoms: C2_12  and  C3_13 
REMARK    4  A    between atoms: C4_14  and  C11_21 
ROOT
ATOM      1  O1  UNK     1      -1.382  37.668 230.575  1.00  0.00    -0.309 OA
ATOM      2  C2  UNK     1      -1.698  37.822 229.265  1.00  0.00     0.086 A 
ATOM      3  C4  UNK     1      -2.140  36.637 231.032  1.00  0.00     0.093 A 
ATOM      4  C7  UNK     1      -2.644  36.909 228.876  1.00  0.00     0.041 A 
ATOM      5  C8  UNK     1      -2.933  36.137 230.026  1.00  0.00     0.041 A 
ENDROOT
BRANCH   3   6
ATOM      6  C11 UNK     1      -2.000  36.263 232.399  1.00  0.00     0.144 C 
ATOM      7  N3  UNK     1      -1.065  36.745 233.180  1.00  0.00    -0.303 N 
ATOM      8  H3  UNK     1      -0.374  37.423 232.858  1.00  0.00     0.186 HD
BRANCH   7   9
ATOM      9  N1  UNK     1      -1.088  36.275 234.444  1.00  0.00    -0.234 N 
ATOM     10  C1  UNK     1      -2.236  35.634 235.010  1.00  0.00     0.257 A 
ATOM     11  C5  UNK     1      -1.702  35.330 236.397  1.00  0.00     0.245 A 
ATOM     12  O2  UNK     1      -2.342  34.768 237.275  1.00  0.00    -0.271 OA
ATOM     13  N2  UNK     1      -0.407  35.787 236.485  1.00  0.00    -0.276 N 
ATOM     14  C6  UNK     1      -0.001  36.373 235.302  1.00  0.00     0.344 A 
ATOM     15  H4  UNK     1       0.174  35.707 237.311  1.00  0.00     0.173 HD
ATOM     16  O3  UNK     1       1.093  36.872 235.073  1.00  0.00    -0.245 OA
ENDBRANCH   7   9
ENDBRANCH   3   6
BRANCH   2  17
ATOM     17  C3  UNK     1      -0.992  38.880 228.585  1.00  0.00    -0.002 A 
ATOM     18  C9  UNK     1       0.225  38.615 227.957  1.00  0.00     0.017 A 
ATOM     19  C13 UNK     1       0.908  39.638 227.301  1.00  0.00     0.037 A 
ATOM     20  C12 UNK     1       0.375  40.926 227.271  1.00  0.00     0.102 A 
ATOM     21  C14 UNK     1      -0.843  41.192 227.898  1.00  0.00     0.037 A 
ATOM     22  C10 UNK     1      -1.526  40.169 228.556  1.00  0.00     0.017 A 
BRANCH  20  23
ATOM     23  N4  UNK     1       1.071  41.968 226.602  1.00  0.00    -0.116 N 
ATOM     24  O4  UNK     1       0.522  43.091 226.489  1.00  0.00    -0.532 OA
ATOM     25  O5  UNK     1       2.217  41.738 226.144  1.00  0.00    -0.532 OA
ENDBRANCH  20  23
ENDBRANCH   2  17
TORSDOF 4
ENDMDL
MODEL 4
REMARK VINA RESULT:      -6.7      3.820      4.303
REMARK  4 active torsions:
REMARK  status: ('A' for Active; 'I' for Inactive)
REMARK    1  A    between atoms: N1_6  and  N3_8 
REMARK    2  A    between atoms: N4_10  and  C12_22 
REMARK    3  A    between atoms: C2_12  and  C3_13 
REMARK    4  A    between atoms: C4_14  and  C11_21 
ROOT
ATOM      1  O1  UNK     1      -1.526  37.510 230.240  1.00  0.00    -0.309 OA
ATOM      2  C2  UNK     1      -2.496  36.598 230.499  1.00  0.00     0.086 A 
ATOM      3  C4  UNK     1      -1.624  37.807 228.918  1.00  0.00     0.093 A 
ATOM      4  C7  UNK     1      -3.212  36.307 229.367  1.00  0.00     0.041 A 
ATOM      5  C8  UNK     1      -2.645  37.093 228.336  1.00  0.00     0.041 A 
ENDROOT
BRANCH   3   6
ATOM      6  C11 UNK     1      -0.707  38.754 228.378  1.00  0.00     0.144 C 
ATOM      7  N3  UNK     1      -0.691  40.015 228.732  1.00  0.00    -0.303 N 
ATOM      8  H3  UNK     1      -1.337  40.402 229.420  1.00  0.00     0.186 HD
BRANCH   7   9
ATOM      9  N1  UNK     1       0.248  40.762 228.115  1.00  0.00    -0.234 N 
ATOM     10  C1  UNK     1       0.823  40.396 226.857  1.00  0.00     0.257 A 
ATOM     11  C5  UNK     1       1.776  41.560 226.663  1.00  0.00     0.245 A 
ATOM     12  O2  UNK     1       2.514  41.695 225.697  1.00  0.00    -0.271 OA
ATOM     13  N2  UNK     1       1.665  42.410 227.740  1.00  0.00    -0.276 N 
ATOM     14  C6  UNK     1       0.734  41.948 228.649  1.00  0.00     0.344 A 
ATOM     15  H4  UNK     1       2.197  43.265 227.852  1.00  0.00     0.173 HD
ATOM     16  O3  UNK     1       0.416  42.483 229.702  1.00  0.00    -0.245 OA
ENDBRANCH   7   9
ENDBRANCH   3   6
BRANCH   2  17
ATOM     17  C3  UNK     1      -2.563  36.147 231.867  1.00  0.00    -0.002 A 
ATOM     18  C9  UNK     1      -3.609  35.320 232.278  1.00  0.00     0.017 A 
ATOM     19  C13 UNK     1      -3.674  34.884 233.601  1.00  0.00     0.037 A 
ATOM     20  C12 UNK     1      -2.694  35.274 234.513  1.00  0.00     0.102 A 
ATOM     21  C14 UNK     1      -1.647  36.100 234.102  1.00  0.00     0.037 A 
ATOM     22  C10 UNK     1      -1.583  36.537 232.779  1.00  0.00     0.017 A 
BRANCH  20  23
ATOM     23  N4  UNK     1      -2.760  34.830 235.861  1.00  0.00    -0.116 N 
ATOM     24  O4  UNK     1      -2.828  35.682 236.779  1.00  0.00    -0.532 OA
ATOM     25  O5  UNK     1      -2.752  33.597 236.096  1.00  0.00    -0.532 OA
ENDBRANCH  20  23
ENDBRANCH   2  17
TORSDOF 4
ENDMDL
MODEL 5
REMARK VINA RESULT:      -6.6      5.202      7.610
REMARK  4 active torsions:
REMARK  status: ('A' for Active; 'I' for Inactive)
REMARK    1  A    between atoms: N1_6  and  N3_8 
REMARK    2  A    between atoms: N4_10  and  C12_22 
REMARK    3  A    between atoms: C2_12  and  C3_13 
REMARK    4  A    between atoms: C4_14  and  C11_21 
ROOT
ATOM      1  O1  UNK     1       1.713  35.394 232.934  1.00  0.00    -0.309 OA
ATOM      2  C2  UNK     1       1.062  35.976 233.973  1.00  0.00     0.086 A 
ATOM      3  C4  UNK     1       0.788  35.217 231.955  1.00  0.00     0.093 A 
ATOM      4  C7  UNK     1      -0.261  36.175 233.675  1.00  0.00     0.041 A 
ATOM      5  C8  UNK     1      -0.442  35.681 232.362  1.00  0.00     0.041 A 
ENDROOT
BRANCH   3   6
ATOM      6  C11 UNK     1       1.214  34.616 230.737  1.00  0.00     0.144 C 
ATOM      7  N3  UNK     1       0.916  35.101 229.557  1.00  0.00    -0.303 N 
ATOM      8  H3  UNK     1       0.356  35.945 229.434  1.00  0.00     0.186 HD
BRANCH   7   9
ATOM      9  N1  UNK     1       1.406  34.396 228.516  1.00  0.00    -0.234 N 
ATOM     10  C1  UNK     1       0.960  33.075 228.198  1.00  0.00     0.257 A 
ATOM     11  C5  UNK     1       1.826  32.797 226.985  1.00  0.00     0.245 A 
ATOM     12  O2  UNK     1       1.803  31.756 226.343  1.00  0.00    -0.271 OA
ATOM     13  N2  UNK     1       2.620  33.895 226.744  1.00  0.00    -0.276 N 
ATOM     14  C6  UNK     1       2.386  34.895 227.668  1.00  0.00     0.344 A 
ATOM     15  H4  UNK     1       3.291  33.963 225.988  1.00  0.00     0.173 HD
ATOM     16  O3  UNK     1       2.936  35.986 227.716  1.00  0.00    -0.245 OA
ENDBRANCH   7   9
ENDBRANCH   3   6
BRANCH   2  17
ATOM     17  C3  UNK     1       1.879  36.252 235.129  1.00  0.00    -0.002 A 
ATOM     18  C9  UNK     1       1.614  37.372 235.918  1.00  0.00     0.017 A 
ATOM     19  C13 UNK     1       2.404  37.639 237.036  1.00  0.00     0.037 A 
ATOM     20  C12 UNK     1       3.459  36.788 237.365  1.00  0.00     0.102 A 
ATOM     21  C14 UNK     1       3.724  35.668 236.575  1.00  0.00     0.037 A 
ATOM     22  C10 UNK     1       2.934  35.401 235.457  1.00  0.00     0.017 A 
BRANCH  20  23
ATOM     23  N4  UNK     1       4.263  37.060 238.503  1.00  0.00    -0.116 N 
ATOM     24  O4  UNK     1       5.512  37.017 238.389  1.00  0.00    -0.532 OA
ATOM     25  O5  UNK     1       3.703  37.339 239.591  1.00  0.00    -0.532 OA
ENDBRANCH  20  23
ENDBRANCH   2  17
TORSDOF 4
ENDMDL
MODEL 6
REMARK VINA RESULT:      -6.2      4.230      4.860
REMARK  4 active torsions:
REMARK  status: ('A' for Active; 'I' for Inactive)
REMARK    1  A    between atoms: N1_6  and  N3_8 
REMARK    2  A    between atoms: N4_10  and  C12_22 
REMARK    3  A    between atoms: C2_12  and  C3_13 
REMARK    4  A    between atoms: C4_14  and  C11_21 
ROOT
ATOM      1  O1  UNK     1      -1.192  37.174 230.895  1.00  0.00    -0.309 OA
ATOM      2  C2  UNK     1      -1.591  36.202 231.754  1.00  0.00     0.086 A 
ATOM      3  C4  UNK     1      -2.116  37.206 229.899  1.00  0.00     0.093 A 
ATOM      4  C7  UNK     1      -2.752  35.614 231.326  1.00  0.00     0.041 A 
ATOM      5  C8  UNK     1      -3.096  36.266 230.118  1.00  0.00     0.041 A 
ENDROOT
BRANCH   3   6
ATOM      6  C11 UNK     1      -1.933  38.152 228.851  1.00  0.00     0.144 C 
ATOM      7  N3  UNK     1      -2.035  39.446 229.030  1.00  0.00    -0.303 N 
ATOM      8  H3  UNK     1      -2.254  39.861 229.936  1.00  0.00     0.186 HD
BRANCH   7   9
ATOM      9  N1  UNK     1      -1.828  40.187 227.921  1.00  0.00    -0.234 N 
ATOM     10  C1  UNK     1      -2.420  39.870 226.658  1.00  0.00     0.257 A 
ATOM     11  C5  UNK     1      -1.857  41.001 225.820  1.00  0.00     0.245 A 
ATOM     12  O2  UNK     1      -2.087  41.160 224.629  1.00  0.00    -0.271 OA
ATOM     13  N2  UNK     1      -1.062  41.793 226.618  1.00  0.00    -0.276 N 
ATOM     14  C6  UNK     1      -1.024  41.319 227.914  1.00  0.00     0.344 A 
ATOM     15  H4  UNK     1      -0.568  42.616 226.296  1.00  0.00     0.173 HD
ATOM     16  O3  UNK     1      -0.405  41.806 228.851  1.00  0.00    -0.245 OA
ENDBRANCH   7   9
ENDBRANCH   3   6
BRANCH   2  17
ATOM     17  C3  UNK     1      -0.733  36.006 232.897  1.00  0.00    -0.002 A 
ATOM     18  C9  UNK     1      -1.194  36.320 234.176  1.00  0.00     0.017 A 
ATOM     19  C13 UNK     1      -0.365  36.131 235.281  1.00  0.00     0.037 A 
ATOM     20  C12 UNK     1       0.924  35.628 235.108  1.00  0.00     0.102 A 
ATOM     21  C14 UNK     1       1.385  35.314 233.829  1.00  0.00     0.037 A 
ATOM     22  C10 UNK     1       0.556  35.503 232.724  1.00  0.00     0.017 A 
BRANCH  20  23
ATOM     23  N4  UNK     1       1.769  35.436 236.234  1.00  0.00    -0.116 N 
ATOM     24  O4  UNK     1       1.258  35.082 237.324  1.00  0.00    -0.532 OA
ATOM     25  O5  UNK     1       3.004  35.623 236.107  1.00  0.00    -0.532 OA
ENDBRANCH  20  23
ENDBRANCH   2  17
TORSDOF 4
ENDMDL
MODEL 7
REMARK VINA RESULT:      -6.2      3.731      4.286
REMARK  4 active torsions:
REMARK  status: ('A' for Active; 'I' for Inactive)
REMARK    1  A    between atoms: N1_6  and  N3_8 
REMARK    2  A    between atoms: N4_10  and  C12_22 
REMARK    3  A    between atoms: C2_12  and  C3_13 
REMARK    4  A    between atoms: C4_14  and  C11_21 
ROOT
ATOM      1  O1  UNK     1      -1.747  37.581 230.356  1.00  0.00    -0.309 OA
ATOM      2  C2  UNK     1      -2.496  36.486 230.637  1.00  0.00     0.086 A 
ATOM      3  C4  UNK     1      -1.879  37.802 229.021  1.00  0.00     0.093 A 
ATOM      4  C7  UNK     1      -3.104  36.002 229.508  1.00  0.00     0.041 A 
ATOM      5  C8  UNK     1      -2.703  36.858 228.455  1.00  0.00     0.041 A 
ENDROOT
BRANCH   3   6
ATOM      6  C11 UNK     1      -1.184  38.909 228.457  1.00  0.00     0.144 C 
ATOM      7  N3  UNK     1       0.027  38.817 227.963  1.00  0.00    -0.303 N 
ATOM      8  H3  UNK     1       0.551  37.942 227.951  1.00  0.00     0.186 HD
BRANCH   7   9
ATOM      9  N1  UNK     1       0.525  39.970 227.472  1.00  0.00    -0.234 N 
ATOM     10  C1  UNK     1      -0.281  41.135 227.265  1.00  0.00     0.257 A 
ATOM     11  C5  UNK     1       0.772  42.081 226.720  1.00  0.00     0.245 A 
ATOM     12  O2  UNK     1       0.553  43.237 226.385  1.00  0.00    -0.271 OA
ATOM     13  N2  UNK     1       1.979  41.422 226.671  1.00  0.00    -0.276 N 
ATOM     14  C6  UNK     1       1.861  40.124 227.126  1.00  0.00     0.344 A 
ATOM     15  H4  UNK     1       2.844  41.835 226.342  1.00  0.00     0.173 HD
ATOM     16  O3  UNK     1       2.756  39.293 227.201  1.00  0.00    -0.245 OA
ENDBRANCH   7   9
ENDBRANCH   3   6
BRANCH   2  17
ATOM     17  C3  UNK     1      -2.490  36.080 232.021  1.00  0.00    -0.002 A 
ATOM     18  C9  UNK     1      -3.510  35.263 232.512  1.00  0.00     0.017 A 
ATOM     19  C13 UNK     1      -3.505  34.872 233.850  1.00  0.00     0.037 A 
ATOM     20  C12 UNK     1      -2.482  35.296 234.698  1.00  0.00     0.102 A 
ATOM     21  C14 UNK     1      -1.463  36.113 234.208  1.00  0.00     0.037 A 
ATOM     22  C10 UNK     1      -1.468  36.505 232.869  1.00  0.00     0.017 A 
BRANCH  20  23
ATOM     23  N4  UNK     1      -2.478  34.897 236.062  1.00  0.00    -0.116 N 
ATOM     24  O4  UNK     1      -2.094  33.740 236.355  1.00  0.00    -0.532 OA
ATOM     25  O5  UNK     1      -2.857  35.714 236.935  1.00  0.00    -0.532 OA
ENDBRANCH  20  23
ENDBRANCH   2  17
TORSDOF 4
ENDMDL
MODEL 8
REMARK VINA RESULT:      -6.2      4.234      9.044
REMARK  4 active torsions:
REMARK  status: ('A' for Active; 'I' for Inactive)
REMARK    1  A    between atoms: N1_6  and  N3_8 
REMARK    2  A    between atoms: N4_10  and  C12_22 
REMARK    3  A    between atoms: C2_12  and  C3_13 
REMARK    4  A    between atoms: C4_14  and  C11_21 
ROOT
ATOM      1  O1  UNK     1      -1.723  36.955 230.650  1.00  0.00    -0.309 OA
ATOM      2  C2  UNK     1      -2.427  36.969 229.491  1.00  0.00     0.086 A 
ATOM      3  C4  UNK     1      -2.087  35.821 231.304  1.00  0.00     0.093 A 
ATOM      4  C7  UNK     1      -3.235  35.866 229.392  1.00  0.00     0.041 A 
ATOM      5  C8  UNK     1      -3.016  35.118 230.572  1.00  0.00     0.041 A 
ENDROOT
BRANCH   3   6
ATOM      6  C11 UNK     1      -1.486  35.559 232.568  1.00  0.00     0.144 C 
ATOM      7  N3  UNK     1      -0.848  36.471 233.259  1.00  0.00    -0.303 N 
ATOM      8  H3  UNK     1      -0.740  37.432 232.935  1.00  0.00     0.186 HD
BRANCH   7   9
ATOM      9  N1  UNK     1      -0.345  36.039 234.434  1.00  0.00    -0.234 N 
ATOM     10  C1  UNK     1      -1.109  35.269 235.367  1.00  0.00     0.257 A 
ATOM     11  C5  UNK     1      -0.070  35.079 236.454  1.00  0.00     0.245 A 
ATOM     12  O2  UNK     1      -0.263  34.464 237.494  1.00  0.00    -0.271 OA
ATOM     13  N2  UNK     1       1.094  35.706 236.072  1.00  0.00    -0.276 N 
ATOM     14  C6  UNK     1       0.958  36.305 234.835  1.00  0.00     0.344 A 
ATOM     15  H4  UNK     1       1.942  35.727 236.626  1.00  0.00     0.173 HD
ATOM     16  O3  UNK     1       1.815  36.936 234.232  1.00  0.00    -0.245 OA
ENDBRANCH   7   9
ENDBRANCH   3   6
BRANCH   2  17
ATOM     17  C3  UNK     1      -2.181  38.107 228.639  1.00  0.00    -0.002 A 
ATOM     18  C9  UNK     1      -0.950  38.763 228.691  1.00  0.00     0.017 A 
ATOM     19  C13 UNK     1      -0.712  39.863 227.868  1.00  0.00     0.037 A 
ATOM     20  C12 UNK     1      -1.702  40.307 226.993  1.00  0.00     0.102 A 
ATOM     21  C14 UNK     1      -2.933  39.651 226.940  1.00  0.00     0.037 A 
ATOM     22  C10 UNK     1      -3.171  38.551 227.764  1.00  0.00     0.017 A 
BRANCH  20  23
ATOM     23  N4  UNK     1      -1.459  41.428 226.155  1.00  0.00    -0.116 N 
ATOM     24  O4  UNK     1      -0.886  42.435 226.636  1.00  0.00    -0.532 OA
ATOM     25  O5  UNK     1      -1.823  41.380 224.954  1.00  0.00    -0.532 OA
ENDBRANCH  20  23
ENDBRANCH   2  17
TORSDOF 4
ENDMDL
MODEL 9
REMARK VINA RESULT:      -6.2      4.475      9.155
REMARK  4 active torsions:
REMARK  status: ('A' for Active; 'I' for Inactive)
REMARK    1  A    between atoms: N1_6  and  N3_8 
REMARK    2  A    between atoms: N4_10  and  C12_22 
REMARK    3  A    between atoms: C2_12  and  C3_13 
REMARK    4  A    between atoms: C4_14  and  C11_21 
ROOT
ATOM      1  O1  UNK     1      -1.504  37.115 230.875  1.00  0.00    -0.309 OA
ATOM      2  C2  UNK     1      -2.282  37.011 229.769  1.00  0.00     0.086 A 
ATOM      3  C4  UNK     1      -1.726  35.991 231.606  1.00  0.00     0.093 A 
ATOM      4  C7  UNK     1      -2.998  35.842 229.779  1.00  0.00     0.041 A 
ATOM      5  C8  UNK     1      -2.638  35.177 230.975  1.00  0.00     0.041 A 
ENDROOT
BRANCH   3   6
ATOM      6  C11 UNK     1      -1.023  35.846 232.835  1.00  0.00     0.144 C 
ATOM      7  N3  UNK     1      -1.050  36.748 233.786  1.00  0.00    -0.303 N 
ATOM      8  H3  UNK     1      -1.579  37.616 233.706  1.00  0.00     0.186 HD
BRANCH   7   9
ATOM      9  N1  UNK     1      -0.322  36.438 234.878  1.00  0.00    -0.234 N 
ATOM     10  C1  UNK     1       1.108  36.475 234.892  1.00  0.00     0.257 A 
ATOM     11  C5  UNK     1       1.362  36.048 236.325  1.00  0.00     0.245 A 
ATOM     12  O2  UNK     1       2.473  35.929 236.822  1.00  0.00    -0.271 OA
ATOM     13  N2  UNK     1       0.153  35.826 236.943  1.00  0.00    -0.276 N 
ATOM     14  C6  UNK     1      -0.901  36.056 236.082  1.00  0.00     0.344 A 
ATOM     15  H4  UNK     1       0.049  35.530 237.907  1.00  0.00     0.173 HD
ATOM     16  O3  UNK     1      -2.092  35.942 236.340  1.00  0.00    -0.245 OA
ENDBRANCH   7   9
ENDBRANCH   3   6
BRANCH   2  17
ATOM     17  C3  UNK     1      -2.190  38.119 228.850  1.00  0.00    -0.002 A 
ATOM     18  C9  UNK     1      -1.140  39.031 228.961  1.00  0.00     0.017 A 
ATOM     19  C13 UNK     1      -1.052  40.103 228.073  1.00  0.00     0.037 A 
ATOM     20  C12 UNK     1      -2.011  40.262 227.073  1.00  0.00     0.102 A 
ATOM     21  C14 UNK     1      -3.061  39.349 226.962  1.00  0.00     0.037 A 
ATOM     22  C10 UNK     1      -3.150  38.278 227.851  1.00  0.00     0.017 A 
BRANCH  20  23
ATOM     23  N4  UNK     1      -1.921  41.353 226.168  1.00  0.00    -0.116 N 
ATOM     24  O4  UNK     1      -1.205  42.337 226.473  1.00  0.00    -0.532 OA
ATOM     25  O5  UNK     1      -2.558  41.302 225.088  1.00  0.00    -0.532 OA
ENDBRANCH  20  23
ENDBRANCH   2  17
TORSDOF 4
ENDMDL
