MODEL 1
REMARK VINA RESULT:      -6.5      0.000      0.000
REMARK  6 active torsions:
REMARK  status: ('A' for Active; 'I' for Inactive)
REMARK    1  A    between atoms: C2_2  and  C16_16 
REMARK    2  A    between atoms: C2_2  and  C17_17 
REMARK    3  A    between atoms: C5_5  and  N1_23 
REMARK    4  A    between atoms: C9_9  and  C10_10 
REMARK       I    between atoms: C9_9  and  N1_23 
REMARK    5  A    between atoms: C12_12  and  N1_23 
REMARK    6  A    between atoms: C16_16  and  N2_24 
ROOT
ATOM      1  C1  UNK     1       1.120  34.923 231.881  1.00  0.00     0.274 C 
ATOM      2  C12 UNK     1       0.328  36.195 233.887  1.00  0.00     0.096 C 
ATOM      3  C13 UNK     1      -1.101  35.987 233.396  1.00  0.00     0.056 C 
ATOM      4  C14 UNK     1      -1.189  35.895 231.890  1.00  0.00     0.274 C 
ATOM      5  C15 UNK     1       1.167  34.994 233.389  1.00  0.00     0.056 C 
ATOM      6  N2  UNK     1      -0.265  34.892 231.293  1.00  0.00     0.088 N 
ENDROOT
BRANCH   2   7
ATOM      7  N1  UNK     1       0.395  36.366 235.369  1.00  0.00    -0.313 N 
ATOM      8  C9  UNK     1       1.315  37.230 235.974  1.00  0.00     0.224 C 
ATOM      9  O1  UNK     1       2.128  37.869 235.316  1.00  0.00    -0.273 OA
BRANCH   7  10
ATOM     10  C5  UNK     1      -0.549  35.614 236.153  1.00  0.00     0.037 A 
ATOM     11  C6  UNK     1      -1.820  36.119 236.450  1.00  0.00     0.030 A 
ATOM     12  C7  UNK     1      -2.713  35.361 237.225  1.00  0.00     0.002 A 
ATOM     13  C21 UNK     1      -2.367  34.103 237.700  1.00  0.00     0.000 A 
ATOM     14  C8  UNK     1      -1.109  33.608 237.398  1.00  0.00     0.002 A 
ATOM     15  C22 UNK     1      -0.215  34.358 236.641  1.00  0.00     0.030 A 
ENDBRANCH   7  10
BRANCH   8  16
ATOM     16  C10 UNK     1       1.354  37.408 237.470  1.00  0.00     0.099 C 
ATOM     17  C11 UNK     1       2.751  37.112 237.999  1.00  0.00     0.014 C 
ENDBRANCH   8  16
ENDBRANCH   2   7
BRANCH   6  18
ATOM     18  C16 UNK     1      -0.222  35.154 229.806  1.00  0.00     0.277 C 
BRANCH  18  19
ATOM     19  C2  UNK     1       1.231  35.059 229.345  1.00  0.00     0.068 C 
BRANCH  19  20
ATOM     20  C17 UNK     1       1.450  33.880 228.466  1.00  0.00    -0.057 A 
ATOM     21  C3  UNK     1       2.359  33.941 227.409  1.00  0.00     0.007 A 
ATOM     22  C18 UNK     1       2.549  32.830 226.593  1.00  0.00     0.001 A 
ATOM     23  C4  UNK     1       1.833  31.661 226.828  1.00  0.00     0.000 A 
ATOM     24  C19 UNK     1       0.928  31.603 227.879  1.00  0.00     0.001 A 
ATOM     25  C20 UNK     1       0.736  32.712 228.696  1.00  0.00     0.007 A 
ENDBRANCH  19  20
ENDBRANCH  18  19
ENDBRANCH   6  18
TORSDOF 6
ENDMDL
MODEL 2
REMARK VINA RESULT:      -6.4      1.979      2.831
REMARK  6 active torsions:
REMARK  status: ('A' for Active; 'I' for Inactive)
REMARK    1  A    between atoms: C2_2  and  C16_16 
REMARK    2  A    between atoms: C2_2  and  C17_17 
REMARK    3  A    between atoms: C5_5  and  N1_23 
REMARK    4  A    between atoms: C9_9  and  C10_10 
REMARK       I    between atoms: C9_9  and  N1_23 
REMARK    5  A    between atoms: C12_12  and  N1_23 
REMARK    6  A    between atoms: C16_16  and  N2_24 
ROOT
ATOM      1  C1  UNK     1       0.947  33.573 232.821  1.00  0.00     0.274 C 
ATOM      2  C12 UNK     1       1.407  35.326 234.550  1.00  0.00     0.096 C 
ATOM      3  C13 UNK     1      -0.044  35.774 234.413  1.00  0.00     0.056 C 
ATOM      4  C14 UNK     1      -0.596  35.536 233.026  1.00  0.00     0.274 C 
ATOM      5  C15 UNK     1       1.456  33.814 234.223  1.00  0.00     0.056 C 
ATOM      6  N2  UNK     1      -0.417  34.140 232.539  1.00  0.00     0.088 N 
ENDROOT
BRANCH   2   7
ATOM      7  N1  UNK     1       1.968  35.640 235.898  1.00  0.00    -0.313 N 
ATOM      8  C9  UNK     1       2.106  36.955 236.354  1.00  0.00     0.224 C 
ATOM      9  O1  UNK     1       1.796  37.915 235.657  1.00  0.00    -0.273 OA
BRANCH   7  10
ATOM     10  C5  UNK     1       2.343  34.521 236.722  1.00  0.00     0.037 A 
ATOM     11  C6  UNK     1       1.446  33.948 237.630  1.00  0.00     0.030 A 
ATOM     12  C7  UNK     1       1.849  32.862 238.425  1.00  0.00     0.002 A 
ATOM     13  C21 UNK     1       3.127  32.329 238.323  1.00  0.00     0.000 A 
ATOM     14  C8  UNK     1       4.008  32.899 237.418  1.00  0.00     0.002 A 
ATOM     15  C22 UNK     1       3.619  33.982 236.636  1.00  0.00     0.030 A 
ENDBRANCH   7  10
BRANCH   8  16
ATOM     16  C10 UNK     1       2.652  37.254 237.727  1.00  0.00     0.099 C 
ATOM     17  C11 UNK     1       4.136  37.586 237.641  1.00  0.00     0.014 C 
ENDBRANCH   8  16
ENDBRANCH   2   7
BRANCH   6  18
ATOM     18  C16 UNK     1      -0.698  34.147 231.055  1.00  0.00     0.277 C 
BRANCH  18  19
ATOM     19  C2  UNK     1       0.227  33.131 230.388  1.00  0.00     0.068 C 
BRANCH  19  20
ATOM     20  C17 UNK     1       0.974  33.733 229.251  1.00  0.00    -0.057 A 
ATOM     21  C3  UNK     1       1.161  33.019 228.067  1.00  0.00     0.007 A 
ATOM     22  C18 UNK     1       1.866  33.596 227.015  1.00  0.00     0.001 A 
ATOM     23  C4  UNK     1       2.386  34.879 227.143  1.00  0.00     0.000 A 
ATOM     24  C19 UNK     1       2.200  35.587 228.324  1.00  0.00     0.001 A 
ATOM     25  C20 UNK     1       1.496  35.013 229.377  1.00  0.00     0.007 A 
ENDBRANCH  19  20
ENDBRANCH  18  19
ENDBRANCH   6  18
TORSDOF 6
ENDMDL
MODEL 3
REMARK VINA RESULT:      -6.4      2.488      7.979
REMARK  6 active torsions:
REMARK  status: ('A' for Active; 'I' for Inactive)
REMARK    1  A    between atoms: C2_2  and  C16_16 
REMARK    2  A    between atoms: C2_2  and  C17_17 
REMARK    3  A    between atoms: C5_5  and  N1_23 
REMARK    4  A    between atoms: C9_9  and  C10_10 
REMARK       I    between atoms: C9_9  and  N1_23 
REMARK    5  A    between atoms: C12_12  and  N1_23 
REMARK    6  A    between atoms: C16_16  and  N2_24 
ROOT
ATOM      1  C1  UNK     1      -1.740  36.409 233.520  1.00  0.00     0.274 C 
ATOM      2  C12 UNK     1      -0.666  35.612 231.402  1.00  0.00     0.096 C 
ATOM      3  C13 UNK     1      -1.299  34.247 231.652  1.00  0.00     0.056 C 
ATOM      4  C14 UNK     1      -1.476  33.949 233.123  1.00  0.00     0.274 C 
ATOM      5  C15 UNK     1      -1.594  36.674 232.040  1.00  0.00     0.056 C 
ATOM      6  N2  UNK     1      -2.194  35.019 233.871  1.00  0.00     0.088 N 
ENDROOT
BRANCH   2   7
ATOM      7  N1  UNK     1      -0.421  35.862 229.950  1.00  0.00    -0.313 N 
ATOM      8  C9  UNK     1       0.775  35.490 229.328  1.00  0.00     0.224 C 
ATOM      9  O1  UNK     1       1.690  34.964 229.950  1.00  0.00    -0.273 OA
BRANCH   7  10
ATOM     10  C5  UNK     1      -1.485  36.487 229.210  1.00  0.00     0.037 A 
ATOM     11  C6  UNK     1      -2.559  35.745 228.705  1.00  0.00     0.030 A 
ATOM     12  C7  UNK     1      -3.576  36.387 227.978  1.00  0.00     0.002 A 
ATOM     13  C21 UNK     1      -3.549  37.757 227.757  1.00  0.00     0.000 A 
ATOM     14  C8  UNK     1      -2.485  38.486 228.266  1.00  0.00     0.002 A 
ATOM     15  C22 UNK     1      -1.469  37.855 228.975  1.00  0.00     0.030 A 
ENDBRANCH   7  10
BRANCH   8  16
ATOM     16  C10 UNK     1       0.997  35.728 227.856  1.00  0.00     0.099 C 
ATOM     17  C11 UNK     1       2.453  35.466 227.495  1.00  0.00     0.014 C 
ENDBRANCH   8  16
ENDBRANCH   2   7
BRANCH   6  18
ATOM     18  C16 UNK     1      -1.994  34.745 235.342  1.00  0.00     0.277 C 
BRANCH  18  19
ATOM     19  C2  UNK     1      -1.823  36.082 236.059  1.00  0.00     0.068 C 
BRANCH  19  20
ATOM     20  C17 UNK     1      -0.434  36.264 236.558  1.00  0.00    -0.057 A 
ATOM     21  C3  UNK     1       0.078  37.542 236.786  1.00  0.00     0.007 A 
ATOM     22  C18 UNK     1       1.381  37.694 237.248  1.00  0.00     0.001 A 
ATOM     23  C4  UNK     1       2.175  36.576 237.480  1.00  0.00     0.000 A 
ATOM     24  C19 UNK     1       1.664  35.306 237.251  1.00  0.00     0.001 A 
ATOM     25  C20 UNK     1       0.361  35.150 236.789  1.00  0.00     0.007 A 
ENDBRANCH  19  20
ENDBRANCH  18  19
ENDBRANCH   6  18
TORSDOF 6
ENDMDL
MODEL 4
REMARK VINA RESULT:      -6.3      1.587      2.985
REMARK  6 active torsions:
REMARK  status: ('A' for Active; 'I' for Inactive)
REMARK    1  A    between atoms: C2_2  and  C16_16 
REMARK    2  A    between atoms: C2_2  and  C17_17 
REMARK    3  A    between atoms: C5_5  and  N1_23 
REMARK    4  A    between atoms: C9_9  and  C10_10 
REMARK       I    between atoms: C9_9  and  N1_23 
REMARK    5  A    between atoms: C12_12  and  N1_23 
REMARK    6  A    between atoms: C16_16  and  N2_24 
ROOT
ATOM      1  C1  UNK     1      -1.427  36.119 231.608  1.00  0.00     0.274 C 
ATOM      2  C12 UNK     1      -0.979  35.094 233.849  1.00  0.00     0.096 C 
ATOM      3  C13 UNK     1       0.499  35.039 233.474  1.00  0.00     0.056 C 
ATOM      4  C14 UNK     1       0.715  34.876 231.988  1.00  0.00     0.274 C 
ATOM      5  C15 UNK     1      -1.600  36.297 233.098  1.00  0.00     0.056 C 
ATOM      6  N2  UNK     1      -0.011  35.880 231.161  1.00  0.00     0.088 N 
ENDROOT
BRANCH   2   7
ATOM      7  N1  UNK     1      -1.182  35.173 235.326  1.00  0.00    -0.313 N 
ATOM      8  C9  UNK     1      -2.265  34.550 235.958  1.00  0.00     0.224 C 
ATOM      9  O1  UNK     1      -3.112  33.931 235.324  1.00  0.00    -0.273 OA
BRANCH   7  10
ATOM     10  C5  UNK     1      -0.198  35.903 236.080  1.00  0.00     0.037 A 
ATOM     11  C6  UNK     1      -0.319  37.280 236.301  1.00  0.00     0.030 A 
ATOM     12  C7  UNK     1       0.666  37.963 237.034  1.00  0.00     0.002 A 
ATOM     13  C21 UNK     1       1.764  37.297 237.561  1.00  0.00     0.000 A 
ATOM     14  C8  UNK     1       1.874  35.933 237.342  1.00  0.00     0.002 A 
ATOM     15  C22 UNK     1       0.909  35.252 236.607  1.00  0.00     0.030 A 
ENDBRANCH   7  10
BRANCH   8  16
ATOM     16  C10 UNK     1      -2.443  34.619 237.453  1.00  0.00     0.099 C 
ATOM     17  C11 UNK     1      -2.081  33.284 238.088  1.00  0.00     0.014 C 
ENDBRANCH   8  16
ENDBRANCH   2   7
BRANCH   6  18
ATOM     18  C16 UNK     1       0.025  35.391 229.732  1.00  0.00     0.277 C 
BRANCH  18  19
ATOM     19  C2  UNK     1       1.469  35.038 229.383  1.00  0.00     0.068 C 
BRANCH  19  20
ATOM     20  C17 UNK     1       1.540  33.905 228.423  1.00  0.00    -0.057 A 
ATOM     21  C3  UNK     1       2.375  33.970 227.307  1.00  0.00     0.007 A 
ATOM     22  C18 UNK     1       2.425  32.903 226.416  1.00  0.00     0.001 A 
ATOM     23  C4  UNK     1       1.644  31.773 226.634  1.00  0.00     0.000 A 
ATOM     24  C19 UNK     1       0.812  31.711 227.745  1.00  0.00     0.001 A 
ATOM     25  C20 UNK     1       0.760  32.776 228.637  1.00  0.00     0.007 A 
ENDBRANCH  19  20
ENDBRANCH  18  19
ENDBRANCH   6  18
TORSDOF 6
ENDMDL
MODEL 5
REMARK VINA RESULT:      -6.3      2.598      4.188
REMARK  6 active torsions:
REMARK  status: ('A' for Active; 'I' for Inactive)
REMARK    1  A    between atoms: C2_2  and  C16_16 
REMARK    2  A    between atoms: C2_2  and  C17_17 
REMARK    3  A    between atoms: C5_5  and  N1_23 
REMARK    4  A    between atoms: C9_9  and  C10_10 
REMARK       I    between atoms: C9_9  and  N1_23 
REMARK    5  A    between atoms: C12_12  and  N1_23 
REMARK    6  A    between atoms: C16_16  and  N2_24 
ROOT
ATOM      1  C1  UNK     1       1.108  35.014 230.745  1.00  0.00     0.274 C 
ATOM      2  C12 UNK     1       0.098  35.418 233.001  1.00  0.00     0.096 C 
ATOM      3  C13 UNK     1      -0.908  34.313 232.695  1.00  0.00     0.056 C 
ATOM      4  C14 UNK     1      -1.213  34.198 231.219  1.00  0.00     0.274 C 
ATOM      5  C15 UNK     1       1.396  35.086 232.226  1.00  0.00     0.056 C 
ATOM      6  N2  UNK     1      -0.000  34.072 230.363  1.00  0.00     0.088 N 
ENDROOT
BRANCH   2   7
ATOM      7  N1  UNK     1       0.331  35.578 234.468  1.00  0.00    -0.313 N 
ATOM      8  C9  UNK     1      -0.531  36.328 235.275  1.00  0.00     0.224 C 
ATOM      9  O1  UNK     1      -1.504  36.911 234.813  1.00  0.00    -0.273 OA
BRANCH   7  10
ATOM     10  C5  UNK     1       1.475  34.903 235.021  1.00  0.00     0.037 A 
ATOM     11  C6  UNK     1       1.461  33.527 235.276  1.00  0.00     0.030 A 
ATOM     12  C7  UNK     1       2.594  32.904 235.826  1.00  0.00     0.002 A 
ATOM     13  C21 UNK     1       3.744  33.624 236.115  1.00  0.00     0.000 A 
ATOM     14  C8  UNK     1       3.752  34.985 235.855  1.00  0.00     0.002 A 
ATOM     15  C22 UNK     1       2.630  35.612 235.322  1.00  0.00     0.030 A 
ENDBRANCH   7  10
BRANCH   8  16
ATOM     16  C10 UNK     1      -0.296  36.459 236.758  1.00  0.00     0.099 C 
ATOM     17  C11 UNK     1       0.259  37.840 237.082  1.00  0.00     0.014 C 
ENDBRANCH   8  16
ENDBRANCH   2   7
BRANCH   6  18
ATOM     18  C16 UNK     1      -0.436  34.308 228.936  1.00  0.00     0.277 C 
BRANCH  18  19
ATOM     19  C2  UNK     1      -0.064  35.739 228.553  1.00  0.00     0.068 C 
BRANCH  19  20
ATOM     20  C17 UNK     1      -1.270  36.595 228.394  1.00  0.00    -0.057 A 
ATOM     21  C3  UNK     1      -1.176  37.983 228.501  1.00  0.00     0.007 A 
ATOM     22  C18 UNK     1      -2.315  38.768 228.354  1.00  0.00     0.001 A 
ATOM     23  C4  UNK     1      -3.546  38.173 228.103  1.00  0.00     0.000 A 
ATOM     24  C19 UNK     1      -3.638  36.791 227.999  1.00  0.00     0.001 A 
ATOM     25  C20 UNK     1      -2.501  36.003 228.145  1.00  0.00     0.007 A 
ENDBRANCH  19  20
ENDBRANCH  18  19
ENDBRANCH   6  18
TORSDOF 6
ENDMDL
MODEL 6
REMARK VINA RESULT:      -6.3      3.344      5.076
REMARK  6 active torsions:
REMARK  status: ('A' for Active; 'I' for Inactive)
REMARK    1  A    between atoms: C2_2  and  C16_16 
REMARK    2  A    between atoms: C2_2  and  C17_17 
REMARK    3  A    between atoms: C5_5  and  N1_23 
REMARK    4  A    between atoms: C9_9  and  C10_10 
REMARK       I    between atoms: C9_9  and  N1_23 
REMARK    5  A    between atoms: C12_12  and  N1_23 
REMARK    6  A    between atoms: C16_16  and  N2_24 
ROOT
ATOM      1  C1  UNK     1      -1.698  36.268 231.502  1.00  0.00     0.274 C 
ATOM      2  C12 UNK     1      -0.082  34.846 232.783  1.00  0.00     0.096 C 
ATOM      3  C13 UNK     1       0.907  35.020 231.634  1.00  0.00     0.056 C 
ATOM      4  C14 UNK     1       0.221  35.196 230.299  1.00  0.00     0.274 C 
ATOM      5  C15 UNK     1      -0.974  36.110 232.818  1.00  0.00     0.056 C 
ATOM      6  N2  UNK     1      -0.808  36.272 230.289  1.00  0.00     0.088 N 
ENDROOT
BRANCH   2   7
ATOM      7  N1  UNK     1       0.605  34.592 234.084  1.00  0.00    -0.313 N 
ATOM      8  C9  UNK     1       1.169  33.349 234.391  1.00  0.00     0.224 C 
ATOM      9  O1  UNK     1       1.104  32.401 233.617  1.00  0.00    -0.273 OA
BRANCH   7  10
ATOM     10  C5  UNK     1       0.681  35.695 235.005  1.00  0.00     0.037 A 
ATOM     11  C6  UNK     1       1.772  36.571 235.009  1.00  0.00     0.030 A 
ATOM     12  C7  UNK     1       1.818  37.632 235.928  1.00  0.00     0.002 A 
ATOM     13  C21 UNK     1       0.789  37.843 236.836  1.00  0.00     0.000 A 
ATOM     14  C8  UNK     1      -0.291  36.975 236.822  1.00  0.00     0.002 A 
ATOM     15  C22 UNK     1      -0.337  35.915 235.923  1.00  0.00     0.030 A 
ENDBRANCH   7  10
BRANCH   8  16
ATOM     16  C10 UNK     1       1.880  33.116 235.700  1.00  0.00     0.099 C 
ATOM     17  C11 UNK     1       3.312  32.662 235.447  1.00  0.00     0.014 C 
ENDBRANCH   8  16
ENDBRANCH   2   7
BRANCH   6  18
ATOM     18  C16 UNK     1      -1.621  36.100 229.028  1.00  0.00     0.277 C 
BRANCH  18  19
ATOM     19  C2  UNK     1      -2.884  36.950 229.152  1.00  0.00     0.068 C 
BRANCH  19  20
ATOM     20  C17 UNK     1      -2.922  38.028 228.129  1.00  0.00    -0.057 A 
ATOM     21  C3  UNK     1      -3.864  37.999 227.100  1.00  0.00     0.007 A 
ATOM     22  C18 UNK     1      -3.882  39.013 226.148  1.00  0.00     0.001 A 
ATOM     23  C4  UNK     1      -2.962  40.054 226.218  1.00  0.00     0.000 A 
ATOM     24  C19 UNK     1      -2.024  40.080 227.242  1.00  0.00     0.001 A 
ATOM     25  C20 UNK     1      -2.003  39.067 228.195  1.00  0.00     0.007 A 
ENDBRANCH  19  20
ENDBRANCH  18  19
ENDBRANCH   6  18
TORSDOF 6
ENDMDL
MODEL 7
REMARK VINA RESULT:      -6.2      4.899      8.433
REMARK  6 active torsions:
REMARK  status: ('A' for Active; 'I' for Inactive)
REMARK    1  A    between atoms: C2_2  and  C16_16 
REMARK    2  A    between atoms: C2_2  and  C17_17 
REMARK    3  A    between atoms: C5_5  and  N1_23 
REMARK    4  A    between atoms: C9_9  and  C10_10 
REMARK       I    between atoms: C9_9  and  N1_23 
REMARK    5  A    between atoms: C12_12  and  N1_23 
REMARK    6  A    between atoms: C16_16  and  N2_24 
ROOT
ATOM      1  C1  UNK     1       0.215  35.975 228.685  1.00  0.00     0.274 C 
ATOM      2  C12 UNK     1      -1.155  38.010 228.179  1.00  0.00     0.096 C 
ATOM      3  C13 UNK     1      -1.565  38.040 229.648  1.00  0.00     0.056 C 
ATOM      4  C14 UNK     1      -1.600  36.663 230.269  1.00  0.00     0.274 C 
ATOM      5  C15 UNK     1       0.253  37.370 228.107  1.00  0.00     0.056 C 
ATOM      6  N2  UNK     1      -0.344  35.885 230.079  1.00  0.00     0.088 N 
ENDROOT
BRANCH   2   7
ATOM      7  N1  UNK     1      -1.202  39.365 227.554  1.00  0.00    -0.313 N 
ATOM      8  C9  UNK     1      -2.355  39.849 226.925  1.00  0.00     0.224 C 
ATOM      9  O1  UNK     1      -3.373  39.174 226.836  1.00  0.00    -0.273 OA
BRANCH   7  10
ATOM     10  C5  UNK     1      -0.009  40.165 227.645  1.00  0.00     0.037 A 
ATOM     11  C6  UNK     1       0.233  40.994 228.746  1.00  0.00     0.030 A 
ATOM     12  C7  UNK     1       1.404  41.768 228.798  1.00  0.00     0.002 A 
ATOM     13  C21 UNK     1       2.344  41.722 227.778  1.00  0.00     0.000 A 
ATOM     14  C8  UNK     1       2.100  40.894 226.694  1.00  0.00     0.002 A 
ATOM     15  C22 UNK     1       0.937  40.134 226.630  1.00  0.00     0.030 A 
ENDBRANCH   7  10
BRANCH   8  16
ATOM     16  C10 UNK     1      -2.393  41.229 226.319  1.00  0.00     0.099 C 
ATOM     17  C11 UNK     1      -2.275  41.141 224.804  1.00  0.00     0.014 C 
ENDBRANCH   8  16
ENDBRANCH   2   7
BRANCH   6  18
ATOM     18  C16 UNK     1      -0.649  34.450 230.441  1.00  0.00     0.277 C 
BRANCH  18  19
ATOM     19  C2  UNK     1       0.673  33.697 230.566  1.00  0.00     0.068 C 
BRANCH  19  20
ATOM     20  C17 UNK     1       0.970  33.340 231.979  1.00  0.00    -0.057 A 
ATOM     21  C3  UNK     1       1.121  34.335 232.946  1.00  0.00     0.007 A 
ATOM     22  C18 UNK     1       1.403  33.984 234.262  1.00  0.00     0.001 A 
ATOM     23  C4  UNK     1       1.537  32.646 234.615  1.00  0.00     0.000 A 
ATOM     24  C19 UNK     1       1.389  31.658 233.650  1.00  0.00     0.001 A 
ATOM     25  C20 UNK     1       1.107  32.005 232.334  1.00  0.00     0.007 A 
ENDBRANCH  19  20
ENDBRANCH  18  19
ENDBRANCH   6  18
TORSDOF 6
ENDMDL
MODEL 8
REMARK VINA RESULT:      -6.2      2.012      3.105
REMARK  6 active torsions:
REMARK  status: ('A' for Active; 'I' for Inactive)
REMARK    1  A    between atoms: C2_2  and  C16_16 
REMARK    2  A    between atoms: C2_2  and  C17_17 
REMARK    3  A    between atoms: C5_5  and  N1_23 
REMARK    4  A    between atoms: C9_9  and  C10_10 
REMARK       I    between atoms: C9_9  and  N1_23 
REMARK    5  A    between atoms: C12_12  and  N1_23 
REMARK    6  A    between atoms: C16_16  and  N2_24 
ROOT
ATOM      1  C1  UNK     1       1.402  34.957 230.802  1.00  0.00     0.274 C 
ATOM      2  C12 UNK     1       0.274  35.017 233.037  1.00  0.00     0.096 C 
ATOM      3  C13 UNK     1      -0.136  33.565 232.816  1.00  0.00     0.056 C 
ATOM      4  C14 UNK     1      -0.330  33.233 231.354  1.00  0.00     0.274 C 
ATOM      5  C15 UNK     1       1.600  35.244 232.272  1.00  0.00     0.056 C 
ATOM      6  N2  UNK     1       0.830  33.600 230.495  1.00  0.00     0.088 N 
ENDROOT
BRANCH   2   7
ATOM      7  N1  UNK     1       0.383  35.357 234.487  1.00  0.00    -0.313 N 
ATOM      8  C9  UNK     1      -0.599  36.102 235.148  1.00  0.00     0.224 C 
ATOM      9  O1  UNK     1      -1.585  36.535 234.562  1.00  0.00    -0.273 OA
BRANCH   7  10
ATOM     10  C5  UNK     1       1.540  34.861 235.185  1.00  0.00     0.037 A 
ATOM     11  C6  UNK     1       2.660  35.668 235.412  1.00  0.00     0.030 A 
ATOM     12  C7  UNK     1       3.775  35.148 236.089  1.00  0.00     0.002 A 
ATOM     13  C21 UNK     1       3.790  33.840 236.555  1.00  0.00     0.000 A 
ATOM     14  C8  UNK     1       2.675  33.048 236.331  1.00  0.00     0.002 A 
ATOM     15  C22 UNK     1       1.572  33.553 235.651  1.00  0.00     0.030 A 
ENDBRANCH   7  10
BRANCH   8  16
ATOM     16  C10 UNK     1      -0.485  36.416 236.619  1.00  0.00     0.099 C 
ATOM     17  C11 UNK     1      -0.022  37.853 236.815  1.00  0.00     0.014 C 
ENDBRANCH   8  16
ENDBRANCH   2   7
BRANCH   6  18
ATOM     18  C16 UNK     1       0.363  33.528 229.061  1.00  0.00     0.277 C 
BRANCH  18  19
ATOM     19  C2  UNK     1       1.319  34.354 228.204  1.00  0.00     0.068 C 
BRANCH  19  20
ATOM     20  C17 UNK     1       1.629  33.675 226.917  1.00  0.00    -0.057 A 
ATOM     21  C3  UNK     1       1.948  32.317 226.890  1.00  0.00     0.007 A 
ATOM     22  C18 UNK     1       2.240  31.699 225.678  1.00  0.00     0.001 A 
ATOM     23  C4  UNK     1       2.217  32.432 224.496  1.00  0.00     0.000 A 
ATOM     24  C19 UNK     1       1.901  33.784 224.527  1.00  0.00     0.001 A 
ATOM     25  C20 UNK     1       1.609  34.405 225.736  1.00  0.00     0.007 A 
ENDBRANCH  19  20
ENDBRANCH  18  19
ENDBRANCH   6  18
TORSDOF 6
ENDMDL
MODEL 9
REMARK VINA RESULT:      -6.2      2.060      8.049
REMARK  6 active torsions:
REMARK  status: ('A' for Active; 'I' for Inactive)
REMARK    1  A    between atoms: C2_2  and  C16_16 
REMARK    2  A    between atoms: C2_2  and  C17_17 
REMARK    3  A    between atoms: C5_5  and  N1_23 
REMARK    4  A    between atoms: C9_9  and  C10_10 
REMARK       I    between atoms: C9_9  and  N1_23 
REMARK    5  A    between atoms: C12_12  and  N1_23 
REMARK    6  A    between atoms: C16_16  and  N2_24 
ROOT
ATOM      1  C1  UNK     1      -1.220  33.583 233.407  1.00  0.00     0.274 C 
ATOM      2  C12 UNK     1      -0.348  35.109 231.623  1.00  0.00     0.096 C 
ATOM      3  C13 UNK     1       1.058  34.621 231.960  1.00  0.00     0.056 C 
ATOM      4  C14 UNK     1       1.202  34.225 233.411  1.00  0.00     0.274 C 
ATOM      5  C15 UNK     1      -1.326  33.954 231.947  1.00  0.00     0.056 C 
ATOM      6  N2  UNK     1       0.171  33.254 233.875  1.00  0.00     0.088 N 
ENDROOT
BRANCH   2   7
ATOM      7  N1  UNK     1      -0.458  35.574 230.208  1.00  0.00    -0.313 N 
ATOM      8  C9  UNK     1      -1.333  36.600 229.833  1.00  0.00     0.224 C 
ATOM      9  O1  UNK     1      -2.070  37.148 230.645  1.00  0.00    -0.273 OA
BRANCH   7  10
ATOM     10  C5  UNK     1       0.397  34.933 229.245  1.00  0.00     0.037 A 
ATOM     11  C6  UNK     1       0.089  33.674 228.716  1.00  0.00     0.030 A 
ATOM     12  C7  UNK     1       0.952  33.074 227.784  1.00  0.00     0.002 A 
ATOM     13  C21 UNK     1       2.110  33.710 227.360  1.00  0.00     0.000 A 
ATOM     14  C8  UNK     1       2.406  34.959 227.884  1.00  0.00     0.002 A 
ATOM     15  C22 UNK     1       1.563  35.554 228.816  1.00  0.00     0.030 A 
ENDBRANCH   7  10
BRANCH   8  16
ATOM     16  C10 UNK     1      -1.415  37.074 228.405  1.00  0.00     0.099 C 
ATOM     17  C11 UNK     1      -1.215  38.582 228.339  1.00  0.00     0.014 C 
ENDBRANCH   8  16
ENDBRANCH   2   7
BRANCH   6  18
ATOM     18  C16 UNK     1       0.236  33.223 235.384  1.00  0.00     0.277 C 
BRANCH  18  19
ATOM     19  C2  UNK     1      -0.826  34.176 235.928  1.00  0.00     0.068 C 
BRANCH  19  20
ATOM     20  C17 UNK     1      -0.226  35.450 236.407  1.00  0.00    -0.057 A 
ATOM     21  C3  UNK     1      -0.963  36.634 236.388  1.00  0.00     0.007 A 
ATOM     22  C18 UNK     1      -0.384  37.818 236.836  1.00  0.00     0.001 A 
ATOM     23  C4  UNK     1       0.927  37.822 237.300  1.00  0.00     0.000 A 
ATOM     24  C19 UNK     1       1.659  36.642 237.316  1.00  0.00     0.001 A 
ATOM     25  C20 UNK     1       1.084  35.458 236.869  1.00  0.00     0.007 A 
ENDBRANCH  19  20
ENDBRANCH  18  19
ENDBRANCH   6  18
TORSDOF 6
ENDMDL
