MODEL 1
REMARK VINA RESULT:      -7.6      0.000      0.000
REMARK  8 active torsions:
REMARK  status: ('A' for Active; 'I' for Inactive)
REMARK    1  A    between atoms: N1_1  and  C22_24 
REMARK    2  A    between atoms: C7_9  and  C15_17 
REMARK    3  A    between atoms: C7_9  and  C16_18 
REMARK    4  A    between atoms: C8_10  and  O1_27 
REMARK    5  A    between atoms: C14_16  and  C15_17 
REMARK    6  A    between atoms: C14_16  and  N3_26 
REMARK    7  A    between atoms: C16_18  and  O1_27 
REMARK    8  A    between atoms: C21_23  and  O2_28 
ROOT
ATOM      1  C7  UNK     1      -2.859  36.479 229.854  1.00  0.00     0.028 C 
ENDROOT
BRANCH   1   2
ATOM      2  C15 UNK     1      -1.930  36.811 231.053  1.00  0.00     0.032 C 
BRANCH   2   3
ATOM      3  C14 UNK     1      -2.498  36.170 232.384  1.00  0.00     0.272 C 
BRANCH   3   4
ATOM      4  N3  UNK     1      -1.480  35.678 233.076  1.00  0.00     0.091 N 
ATOM      5  C5  UNK     1      -1.649  35.935 234.389  1.00  0.00     0.292 C 
ATOM      6  C4  UNK     1      -0.673  35.128 235.191  1.00  0.00     0.153 C 
ATOM      7  N1  UNK     1       0.654  35.285 234.635  1.00  0.00    -0.376 N 
ATOM      8  C6  UNK     1       0.820  35.486 233.200  1.00  0.00     0.153 C 
ATOM      9  C23 UNK     1      -0.369  36.208 232.649  1.00  0.00     0.292 C 
BRANCH   7  10
ATOM     10  C22 UNK     1       1.869  35.225 235.532  1.00  0.00     0.053 A 
ATOM     11  C1  UNK     1       2.629  33.896 235.683  1.00  0.00     0.031 A 
ATOM     12  C2  UNK     1       3.689  33.818 236.455  1.00  0.00     0.004 A 
ATOM     13  C3  UNK     1       4.177  35.060 237.212  1.00  0.00     0.026 A 
ATOM     14  C13 UNK     1       3.519  36.222 237.081  1.00  0.00     0.058 A 
ATOM     15  C20 UNK     1       2.298  36.314 236.191  1.00  0.00     0.082 A 
ATOM     16 Cl1  UNK     1       4.090  37.665 237.963  1.00  0.00    -0.082 Cl
ATOM     17 Cl2  UNK     1       1.443  37.867 236.038  1.00  0.00    -0.080 Cl
ENDBRANCH   7  10
ENDBRANCH   3   4
ENDBRANCH   2   3
ENDBRANCH   1   2
BRANCH   1  18
ATOM     18  C16 UNK     1      -2.277  37.163 228.607  1.00  0.00     0.175 C 
BRANCH  18  19
ATOM     19  O1  UNK     1      -2.899  38.435 228.426  1.00  0.00    -0.351 OA
BRANCH  19  20
ATOM     20  C8  UNK     1      -2.020  39.443 227.963  1.00  0.00     0.070 A 
ATOM     21  C10 UNK     1      -0.883  39.685 228.602  1.00  0.00     0.066 A 
ATOM     22  C19 UNK     1       0.099  40.815 228.079  1.00  0.00     0.042 A 
ATOM     23  N2  UNK     1       1.335  41.040 228.817  1.00  0.00    -0.340 N 
ATOM     24  C18 UNK     1      -0.214  41.512 227.026  1.00  0.00    -0.031 A 
ATOM     25  C21 UNK     1       2.157  42.216 228.531  1.00  0.00     0.116 C 
ATOM     26  H1  UNK     1       1.622  40.389 229.520  1.00  0.00     0.167 HD
ATOM     27  C12 UNK     1       1.713  43.221 227.433  1.00  0.00     0.088 C 
ATOM     28  C11 UNK     1       0.715  42.659 226.443  1.00  0.00     0.049 C 
ATOM     29  C9  UNK     1      -1.532  41.225 226.291  1.00  0.00     0.012 A 
ATOM     30  C17 UNK     1      -2.383  40.242 226.749  1.00  0.00     0.037 A 
BRANCH  25  31
ATOM     31  O2  UNK     1       3.310  42.427 229.218  1.00  0.00    -0.349 OA
ATOM     32  H2  UNK     1       4.137  42.490 228.754  1.00  0.00     0.219 HD
ENDBRANCH  25  31
ENDBRANCH  19  20
ENDBRANCH  18  19
ENDBRANCH   1  18
TORSDOF 8
ENDMDL
MODEL 2
REMARK VINA RESULT:      -7.6      1.350      1.792
REMARK  8 active torsions:
REMARK  status: ('A' for Active; 'I' for Inactive)
REMARK    1  A    between atoms: N1_1  and  C22_24 
REMARK    2  A    between atoms: C7_9  and  C15_17 
REMARK    3  A    between atoms: C7_9  and  C16_18 
REMARK    4  A    between atoms: C8_10  and  O1_27 
REMARK    5  A    between atoms: C14_16  and  C15_17 
REMARK    6  A    between atoms: C14_16  and  N3_26 
REMARK    7  A    between atoms: C16_18  and  O1_27 
REMARK    8  A    between atoms: C21_23  and  O2_28 
ROOT
ATOM      1  C7  UNK     1      -3.532  36.551 229.022  1.00  0.00     0.028 C 
ENDROOT
BRANCH   1   2
ATOM      2  C15 UNK     1      -2.677  36.689 230.310  1.00  0.00     0.032 C 
BRANCH   2   3
ATOM      3  C14 UNK     1      -3.171  35.664 231.411  1.00  0.00     0.272 C 
BRANCH   3   4
ATOM      4  N3  UNK     1      -2.210  35.530 232.315  1.00  0.00     0.091 N 
ATOM      5  C5  UNK     1      -2.732  35.612 233.556  1.00  0.00     0.292 C 
ATOM      6  C4  UNK     1      -1.714  35.163 234.561  1.00  0.00     0.153 C 
ATOM      7  N1  UNK     1      -0.458  35.835 234.310  1.00  0.00    -0.376 N 
ATOM      8  C6  UNK     1      -0.085  36.187 232.944  1.00  0.00     0.153 C 
ATOM      9  C23 UNK     1      -1.316  36.461 232.138  1.00  0.00     0.292 C 
BRANCH   7  10
ATOM     10  C22 UNK     1       0.476  36.161 235.452  1.00  0.00     0.053 A 
ATOM     11  C1  UNK     1       0.211  37.411 236.309  1.00  0.00     0.031 A 
ATOM     12  C2  UNK     1       1.007  37.716 237.308  1.00  0.00     0.004 A 
ATOM     13  C3  UNK     1       2.211  36.820 237.627  1.00  0.00     0.026 A 
ATOM     14  C13 UNK     1       2.445  35.727 236.885  1.00  0.00     0.058 A 
ATOM     15  C20 UNK     1       1.528  35.375 235.734  1.00  0.00     0.082 A 
ATOM     16 Cl1  UNK     1       3.846  34.687 237.259  1.00  0.00    -0.082 Cl
ATOM     17 Cl2  UNK     1       1.863  33.920 234.763  1.00  0.00    -0.080 Cl
ENDBRANCH   7  10
ENDBRANCH   3   4
ENDBRANCH   2   3
ENDBRANCH   1   2
BRANCH   1  18
ATOM     18  C16 UNK     1      -2.905  37.453 227.946  1.00  0.00     0.175 C 
BRANCH  18  19
ATOM     19  O1  UNK     1      -3.215  38.817 228.228  1.00  0.00    -0.351 OA
BRANCH  19  20
ATOM     20  C8  UNK     1      -2.209  39.729 227.827  1.00  0.00     0.070 A 
ATOM     21  C10 UNK     1      -1.123  39.896 228.572  1.00  0.00     0.066 A 
ATOM     22  C19 UNK     1       0.002  40.917 228.118  1.00  0.00     0.042 A 
ATOM     23  N2  UNK     1       1.175  41.063 228.971  1.00  0.00    -0.340 N 
ATOM     24  C18 UNK     1      -0.143  41.600 227.020  1.00  0.00    -0.031 A 
ATOM     25  C21 UNK     1       2.122  42.153 228.736  1.00  0.00     0.116 C 
ATOM     26  H1  UNK     1       1.332  40.417 229.717  1.00  0.00     0.167 HD
ATOM     27  C12 UNK     1       1.879  43.151 227.571  1.00  0.00     0.088 C 
ATOM     28  C11 UNK     1       0.937  42.640 226.502  1.00  0.00     0.049 C 
ATOM     29  C9  UNK     1      -1.403  41.400 226.164  1.00  0.00     0.012 A 
ATOM     30  C17 UNK     1      -2.379  40.510 226.562  1.00  0.00     0.037 A 
BRANCH  25  31
ATOM     31  O2  UNK     1       3.217  42.289 229.530  1.00  0.00    -0.349 OA
ATOM     32  H2  UNK     1       3.590  41.530 229.963  1.00  0.00     0.219 HD
ENDBRANCH  25  31
ENDBRANCH  19  20
ENDBRANCH  18  19
ENDBRANCH   1  18
TORSDOF 8
ENDMDL
MODEL 3
REMARK VINA RESULT:      -7.6      2.024      2.585
REMARK  8 active torsions:
REMARK  status: ('A' for Active; 'I' for Inactive)
REMARK    1  A    between atoms: N1_1  and  C22_24 
REMARK    2  A    between atoms: C7_9  and  C15_17 
REMARK    3  A    between atoms: C7_9  and  C16_18 
REMARK    4  A    between atoms: C8_10  and  O1_27 
REMARK    5  A    between atoms: C14_16  and  C15_17 
REMARK    6  A    between atoms: C14_16  and  N3_26 
REMARK    7  A    between atoms: C16_18  and  O1_27 
REMARK    8  A    between atoms: C21_23  and  O2_28 
ROOT
ATOM      1  C7  UNK     1      -2.272  36.672 231.359  1.00  0.00     0.028 C 
ENDROOT
BRANCH   1   2
ATOM      2  C15 UNK     1      -1.267  36.109 232.399  1.00  0.00     0.032 C 
BRANCH   2   3
ATOM      3  C14 UNK     1      -1.888  36.169 233.854  1.00  0.00     0.272 C 
BRANCH   3   4
ATOM      4  N3  UNK     1      -0.929  35.895 234.727  1.00  0.00     0.091 N 
ATOM      5  C5  UNK     1      -1.038  36.706 235.799  1.00  0.00     0.292 C 
ATOM      6  C4  UNK     1      -0.158  36.203 236.904  1.00  0.00     0.153 C 
ATOM      7  N1  UNK     1       1.167  35.942 236.385  1.00  0.00    -0.376 N 
ATOM      8  C6  UNK     1       1.329  35.490 235.007  1.00  0.00     0.153 C 
ATOM      9  C23 UNK     1       0.233  36.051 234.157  1.00  0.00     0.292 C 
BRANCH   7  10
ATOM     10  C22 UNK     1       2.381  36.119 237.266  1.00  0.00     0.053 A 
ATOM     11  C1  UNK     1       3.138  37.459 237.244  1.00  0.00     0.031 A 
ATOM     12  C2  UNK     1       4.197  37.639 238.002  1.00  0.00     0.004 A 
ATOM     13  C3  UNK     1       4.683  36.508 238.918  1.00  0.00     0.026 A 
ATOM     14  C13 UNK     1       4.025  35.340 238.942  1.00  0.00     0.058 A 
ATOM     15  C20 UNK     1       2.805  35.131 238.071  1.00  0.00     0.082 A 
ATOM     16 Cl1  UNK     1       4.593  34.027 240.009  1.00  0.00    -0.082 Cl
ATOM     17 Cl2  UNK     1       1.951  33.569 238.121  1.00  0.00    -0.080 Cl
ENDBRANCH   7  10
ENDBRANCH   3   4
ENDBRANCH   2   3
ENDBRANCH   1   2
BRANCH   1  18
ATOM     18  C16 UNK     1      -1.682  36.432 229.960  1.00  0.00     0.175 C 
BRANCH  18  19
ATOM     19  O1  UNK     1      -2.024  37.523 229.105  1.00  0.00    -0.351 OA
BRANCH  19  20
ATOM     20  C8  UNK     1      -0.905  38.199 228.562  1.00  0.00     0.070 A 
ATOM     21  C10 UNK     1      -0.879  39.525 228.524  1.00  0.00     0.066 A 
ATOM     22  C19 UNK     1       0.378  40.277 227.915  1.00  0.00     0.042 A 
ATOM     23  N2  UNK     1       0.358  41.735 227.898  1.00  0.00    -0.340 N 
ATOM     24  C18 UNK     1       1.380  39.595 227.444  1.00  0.00    -0.031 A 
ATOM     25  C21 UNK     1       1.366  42.474 227.139  1.00  0.00     0.116 C 
ATOM     26  H1  UNK     1      -0.347  42.230 228.406  1.00  0.00     0.167 HD
ATOM     27  C12 UNK     1       2.465  41.702 226.357  1.00  0.00     0.088 C 
ATOM     28  C11 UNK     1       2.670  40.276 226.819  1.00  0.00     0.049 C 
ATOM     29  C9  UNK     1       1.341  38.060 227.493  1.00  0.00     0.012 A 
ATOM     30  C17 UNK     1       0.247  37.409 228.022  1.00  0.00     0.037 A 
BRANCH  25  31
ATOM     31  O2  UNK     1       1.350  43.832 227.123  1.00  0.00    -0.349 OA
ATOM     32  H2  UNK     1       2.124  44.323 227.375  1.00  0.00     0.219 HD
ENDBRANCH  25  31
ENDBRANCH  19  20
ENDBRANCH  18  19
ENDBRANCH   1  18
TORSDOF 8
ENDMDL
MODEL 4
REMARK VINA RESULT:      -7.4      1.524      2.009
REMARK  8 active torsions:
REMARK  status: ('A' for Active; 'I' for Inactive)
REMARK    1  A    between atoms: N1_1  and  C22_24 
REMARK    2  A    between atoms: C7_9  and  C15_17 
REMARK    3  A    between atoms: C7_9  and  C16_18 
REMARK    4  A    between atoms: C8_10  and  O1_27 
REMARK    5  A    between atoms: C14_16  and  C15_17 
REMARK    6  A    between atoms: C14_16  and  N3_26 
REMARK    7  A    between atoms: C16_18  and  O1_27 
REMARK    8  A    between atoms: C21_23  and  O2_28 
ROOT
ATOM      1  C7  UNK     1      -2.026  36.298 230.350  1.00  0.00     0.028 C 
ENDROOT
BRANCH   1   2
ATOM      2  C15 UNK     1      -1.555  37.041 231.629  1.00  0.00     0.032 C 
BRANCH   2   3
ATOM      3  C14 UNK     1      -1.718  36.109 232.898  1.00  0.00     0.272 C 
BRANCH   3   4
ATOM      4  N3  UNK     1      -0.771  36.425 233.770  1.00  0.00     0.091 N 
ATOM      5  C5  UNK     1       0.337  35.695 233.531  1.00  0.00     0.292 C 
ATOM      6  C4  UNK     1       1.490  36.258 234.306  1.00  0.00     0.153 C 
ATOM      7  N1  UNK     1       1.095  36.457 235.684  1.00  0.00    -0.376 N 
ATOM      8  C6  UNK     1      -0.286  36.807 235.998  1.00  0.00     0.153 C 
ATOM      9  C23 UNK     1      -1.205  36.208 234.979  1.00  0.00     0.292 C 
BRANCH   7  10
ATOM     10  C22 UNK     1       2.107  36.319 236.796  1.00  0.00     0.053 A 
ATOM     11  C1  UNK     1       2.995  37.523 237.160  1.00  0.00     0.031 A 
ATOM     12  C2  UNK     1       3.882  37.430 238.124  1.00  0.00     0.004 A 
ATOM     13  C3  UNK     1       4.037  36.113 238.897  1.00  0.00     0.026 A 
ATOM     14  C13 UNK     1       3.264  35.062 238.585  1.00  0.00     0.058 A 
ATOM     15  C20 UNK     1       2.240  35.168 237.475  1.00  0.00     0.082 A 
ATOM     16 Cl1  UNK     1       3.446  33.533 239.486  1.00  0.00    -0.082 Cl
ATOM     17 Cl2  UNK     1       1.229  33.757 237.081  1.00  0.00    -0.080 Cl
ENDBRANCH   7  10
ENDBRANCH   3   4
ENDBRANCH   2   3
ENDBRANCH   1   2
BRANCH   1  18
ATOM     18  C16 UNK     1      -1.459  37.051 229.136  1.00  0.00     0.175 C 
BRANCH  18  19
ATOM     19  O1  UNK     1      -2.300  38.164 228.829  1.00  0.00    -0.351 OA
BRANCH  19  20
ATOM     20  C8  UNK     1      -1.616  39.255 228.243  1.00  0.00     0.070 A 
ATOM     21  C10 UNK     1      -0.427  39.624 228.702  1.00  0.00     0.066 A 
ATOM     22  C19 UNK     1       0.336  40.847 228.042  1.00  0.00     0.042 A 
ATOM     23  N2  UNK     1       1.640  41.211 228.582  1.00  0.00    -0.340 N 
ATOM     24  C18 UNK     1      -0.208  41.498 227.055  1.00  0.00    -0.031 A 
ATOM     25  C21 UNK     1       2.277  42.465 228.182  1.00  0.00     0.116 C 
ATOM     26  H1  UNK     1       2.099  40.601 229.228  1.00  0.00     0.167 HD
ATOM     27  C12 UNK     1       1.564  43.407 227.173  1.00  0.00     0.088 C 
ATOM     28  C11 UNK     1       0.492  42.732 226.345  1.00  0.00     0.049 C 
ATOM     29  C9  UNK     1      -1.585  41.064 226.530  1.00  0.00     0.012 A 
ATOM     30  C17 UNK     1      -2.245  40.000 227.106  1.00  0.00     0.037 A 
BRANCH  25  31
ATOM     31  O2  UNK     1       3.493  42.804 228.684  1.00  0.00    -0.349 OA
ATOM     32  H2  UNK     1       3.599  43.610 229.176  1.00  0.00     0.219 HD
ENDBRANCH  25  31
ENDBRANCH  19  20
ENDBRANCH  18  19
ENDBRANCH   1  18
TORSDOF 8
ENDMDL
MODEL 5
REMARK VINA RESULT:      -7.1      2.558      3.789
REMARK  8 active torsions:
REMARK  status: ('A' for Active; 'I' for Inactive)
REMARK    1  A    between atoms: N1_1  and  C22_24 
REMARK    2  A    between atoms: C7_9  and  C15_17 
REMARK    3  A    between atoms: C7_9  and  C16_18 
REMARK    4  A    between atoms: C8_10  and  O1_27 
REMARK    5  A    between atoms: C14_16  and  C15_17 
REMARK    6  A    between atoms: C14_16  and  N3_26 
REMARK    7  A    between atoms: C16_18  and  O1_27 
REMARK    8  A    between atoms: C21_23  and  O2_28 
ROOT
ATOM      1  C7  UNK     1      -1.679  32.423 229.690  1.00  0.00     0.028 C 
ENDROOT
BRANCH   1   2
ATOM      2  C15 UNK     1      -1.070  32.439 231.118  1.00  0.00     0.032 C 
BRANCH   2   3
ATOM      3  C14 UNK     1       0.508  32.538 231.043  1.00  0.00     0.272 C 
BRANCH   3   4
ATOM      4  N3  UNK     1       0.926  33.290 232.051  1.00  0.00     0.091 N 
ATOM      5  C5  UNK     1       0.315  32.912 233.192  1.00  0.00     0.292 C 
ATOM      6  C4  UNK     1       1.000  33.545 234.365  1.00  0.00     0.153 C 
ATOM      7  N1  UNK     1       1.162  34.962 234.122  1.00  0.00    -0.376 N 
ATOM      8  C6  UNK     1       1.367  35.445 232.761  1.00  0.00     0.153 C 
ATOM      9  C23 UNK     1       0.670  34.541 231.793  1.00  0.00     0.292 C 
BRANCH   7  10
ATOM     10  C22 UNK     1       1.137  35.942 235.272  1.00  0.00     0.053 A 
ATOM     11  C1  UNK     1       2.414  36.159 236.105  1.00  0.00     0.031 A 
ATOM     12  C2  UNK     1       2.419  37.006 237.109  1.00  0.00     0.004 A 
ATOM     13  C3  UNK     1       1.145  37.788 237.456  1.00  0.00     0.026 A 
ATOM     14  C13 UNK     1       0.030  37.604 236.732  1.00  0.00     0.058 A 
ATOM     15  C20 UNK     1       0.024  36.629 235.574  1.00  0.00     0.082 A 
ATOM     16 Cl1  UNK     1      -1.448  38.515 237.138  1.00  0.00    -0.082 Cl
ATOM     17 Cl2  UNK     1      -1.469  36.403 234.631  1.00  0.00    -0.080 Cl
ENDBRANCH   7  10
ENDBRANCH   3   4
ENDBRANCH   2   3
ENDBRANCH   1   2
BRANCH   1  18
ATOM     18  C16 UNK     1      -2.874  33.390 229.679  1.00  0.00     0.175 C 
BRANCH  18  19
ATOM     19  O1  UNK     1      -2.507  34.609 230.325  1.00  0.00    -0.351 OA
BRANCH  19  20
ATOM     20  C8  UNK     1      -2.575  35.746 229.485  1.00  0.00     0.070 A 
ATOM     21  C10 UNK     1      -1.894  36.843 229.789  1.00  0.00     0.066 A 
ATOM     22  C19 UNK     1      -1.973  38.115 228.844  1.00  0.00     0.042 A 
ATOM     23  N2  UNK     1      -1.205  39.294 229.222  1.00  0.00    -0.340 N 
ATOM     24  C18 UNK     1      -2.714  38.087 227.775  1.00  0.00    -0.031 A 
ATOM     25  C21 UNK     1      -1.424  40.566 228.532  1.00  0.00     0.116 C 
ATOM     26  H1  UNK     1      -0.527  39.234 229.954  1.00  0.00     0.167 HD
ATOM     27  C12 UNK     1      -2.473  40.654 227.389  1.00  0.00     0.088 C 
ATOM     28  C11 UNK     1      -2.845  39.318 226.783  1.00  0.00     0.049 C 
ATOM     29  C9  UNK     1      -3.500  36.812 227.432  1.00  0.00     0.012 A 
ATOM     30  C17 UNK     1      -3.428  35.708 228.255  1.00  0.00     0.037 A 
BRANCH  25  31
ATOM     31  O2  UNK     1      -0.707  41.666 228.882  1.00  0.00    -0.349 OA
ATOM     32  H2  UNK     1       0.218  41.589 229.082  1.00  0.00     0.219 HD
ENDBRANCH  25  31
ENDBRANCH  19  20
ENDBRANCH  18  19
ENDBRANCH   1  18
TORSDOF 8
ENDMDL
MODEL 6
REMARK VINA RESULT:      -7.0      1.821      2.708
REMARK  8 active torsions:
REMARK  status: ('A' for Active; 'I' for Inactive)
REMARK    1  A    between atoms: N1_1  and  C22_24 
REMARK    2  A    between atoms: C7_9  and  C15_17 
REMARK    3  A    between atoms: C7_9  and  C16_18 
REMARK    4  A    between atoms: C8_10  and  O1_27 
REMARK    5  A    between atoms: C14_16  and  C15_17 
REMARK    6  A    between atoms: C14_16  and  N3_26 
REMARK    7  A    between atoms: C16_18  and  O1_27 
REMARK    8  A    between atoms: C21_23  and  O2_28 
ROOT
ATOM      1  C7  UNK     1      -3.684  34.460 231.325  1.00  0.00     0.028 C 
ENDROOT
BRANCH   1   2
ATOM      2  C15 UNK     1      -3.291  35.569 232.337  1.00  0.00     0.032 C 
BRANCH   2   3
ATOM      3  C14 UNK     1      -3.404  35.026 233.820  1.00  0.00     0.272 C 
BRANCH   3   4
ATOM      4  N3  UNK     1      -2.307  35.380 234.476  1.00  0.00     0.091 N 
ATOM      5  C5  UNK     1      -1.284  35.539 233.612  1.00  0.00     0.292 C 
ATOM      6  C4  UNK     1      -0.143  36.224 234.301  1.00  0.00     0.153 C 
ATOM      7  N1  UNK     1       0.130  35.560 235.557  1.00  0.00    -0.376 N 
ATOM      8  C6  UNK     1      -0.961  34.946 236.305  1.00  0.00     0.153 C 
ATOM      9  C23 UNK     1      -2.016  34.466 235.358  1.00  0.00     0.292 C 
BRANCH   7  10
ATOM     10  C22 UNK     1       1.537  35.513 236.106  1.00  0.00     0.053 A 
ATOM     11  C1  UNK     1       2.480  34.380 235.665  1.00  0.00     0.031 A 
ATOM     12  C2  UNK     1       3.709  34.317 236.126  1.00  0.00     0.004 A 
ATOM     13  C3  UNK     1       4.211  35.381 237.112  1.00  0.00     0.026 A 
ATOM     14  C13 UNK     1       3.393  36.372 237.498  1.00  0.00     0.058 A 
ATOM     15  C20 UNK     1       1.978  36.446 236.966  1.00  0.00     0.082 A 
ATOM     16 Cl1  UNK     1       3.980  37.607 238.643  1.00  0.00    -0.082 Cl
ATOM     17 Cl2  UNK     1       0.913  37.771 237.496  1.00  0.00    -0.080 Cl
ENDBRANCH   7  10
ENDBRANCH   3   4
ENDBRANCH   2   3
ENDBRANCH   1   2
BRANCH   1  18
ATOM     18  C16 UNK     1      -3.385  34.987 229.913  1.00  0.00     0.175 C 
BRANCH  18  19
ATOM     19  O1  UNK     1      -2.447  36.060 229.993  1.00  0.00    -0.351 OA
BRANCH  19  20
ATOM     20  C8  UNK     1      -2.620  37.050 228.996  1.00  0.00     0.070 A 
ATOM     21  C10 UNK     1      -1.747  38.042 228.880  1.00  0.00     0.066 A 
ATOM     22  C19 UNK     1      -1.945  39.148 227.761  1.00  0.00     0.042 A 
ATOM     23  N2  UNK     1      -0.956  40.215 227.674  1.00  0.00    -0.340 N 
ATOM     24  C18 UNK     1      -2.969  39.089 226.961  1.00  0.00    -0.031 A 
ATOM     25  C21 UNK     1      -1.210  41.385 226.833  1.00  0.00     0.116 C 
ATOM     26  H1  UNK     1      -0.103  40.148 228.192  1.00  0.00     0.167 HD
ATOM     27  C12 UNK     1      -2.533  41.482 226.024  1.00  0.00     0.088 C 
ATOM     28  C11 UNK     1      -3.234  40.157 225.818  1.00  0.00     0.049 C 
ATOM     29  C9  UNK     1      -3.975  37.936 227.102  1.00  0.00     0.012 A 
ATOM     30  C17 UNK     1      -3.800  36.976 228.076  1.00  0.00     0.037 A 
BRANCH  25  31
ATOM     31  O2  UNK     1      -0.289  42.380 226.751  1.00  0.00    -0.349 OA
ATOM     32  H2  UNK     1      -0.279  42.961 225.998  1.00  0.00     0.219 HD
ENDBRANCH  25  31
ENDBRANCH  19  20
ENDBRANCH  18  19
ENDBRANCH   1  18
TORSDOF 8
ENDMDL
MODEL 7
REMARK VINA RESULT:      -6.9      2.023      2.663
REMARK  8 active torsions:
REMARK  status: ('A' for Active; 'I' for Inactive)
REMARK    1  A    between atoms: N1_1  and  C22_24 
REMARK    2  A    between atoms: C7_9  and  C15_17 
REMARK    3  A    between atoms: C7_9  and  C16_18 
REMARK    4  A    between atoms: C8_10  and  O1_27 
REMARK    5  A    between atoms: C14_16  and  C15_17 
REMARK    6  A    between atoms: C14_16  and  N3_26 
REMARK    7  A    between atoms: C16_18  and  O1_27 
REMARK    8  A    between atoms: C21_23  and  O2_28 
ROOT
ATOM      1  C7  UNK     1      -3.162  36.446 231.625  1.00  0.00     0.028 C 
ENDROOT
BRANCH   1   2
ATOM      2  C15 UNK     1      -1.963  36.215 232.583  1.00  0.00     0.032 C 
BRANCH   2   3
ATOM      3  C14 UNK     1      -2.457  35.547 233.931  1.00  0.00     0.272 C 
BRANCH   3   4
ATOM      4  N3  UNK     1      -1.404  35.372 234.718  1.00  0.00     0.091 N 
ATOM      5  C5  UNK     1      -1.545  36.101 235.844  1.00  0.00     0.292 C 
ATOM      6  C4  UNK     1      -0.521  35.675 236.852  1.00  0.00     0.153 C 
ATOM      7  N1  UNK     1       0.784  35.638 236.228  1.00  0.00    -0.376 N 
ATOM      8  C6  UNK     1       0.903  35.287 234.817  1.00  0.00     0.153 C 
ATOM      9  C23 UNK     1      -0.324  35.725 234.081  1.00  0.00     0.292 C 
BRANCH   7  10
ATOM     10  C22 UNK     1       2.025  35.945 237.034  1.00  0.00     0.053 A 
ATOM     11  C1  UNK     1       2.683  37.330 236.905  1.00  0.00     0.031 A 
ATOM     12  C2  UNK     1       3.762  37.622 237.595  1.00  0.00     0.004 A 
ATOM     13  C3  UNK     1       4.371  36.578 238.540  1.00  0.00     0.026 A 
ATOM     14  C13 UNK     1       3.800  35.370 238.658  1.00  0.00     0.058 A 
ATOM     15  C20 UNK     1       2.557  35.032 237.864  1.00  0.00     0.082 A 
ATOM     16 Cl1  UNK     1       4.511  34.159 239.758  1.00  0.00    -0.082 Cl
ATOM     17 Cl2  UNK     1       1.819  33.421 238.038  1.00  0.00    -0.080 Cl
ENDBRANCH   7  10
ENDBRANCH   3   4
ENDBRANCH   2   3
ENDBRANCH   1   2
BRANCH   1  18
ATOM     18  C16 UNK     1      -2.853  35.722 230.304  1.00  0.00     0.175 C 
BRANCH  18  19
ATOM     19  O1  UNK     1      -1.630  36.221 229.762  1.00  0.00    -0.351 OA
BRANCH  19  20
ATOM     20  C8  UNK     1      -1.794  37.341 228.913  1.00  0.00     0.070 A 
ATOM     21  C10 UNK     1      -0.742  38.062 228.547  1.00  0.00     0.066 A 
ATOM     22  C19 UNK     1      -0.931  39.316 227.594  1.00  0.00     0.042 A 
ATOM     23  N2  UNK     1       0.257  40.074 227.220  1.00  0.00    -0.340 N 
ATOM     24  C18 UNK     1      -2.119  39.645 227.178  1.00  0.00    -0.031 A 
ATOM     25  C21 UNK     1       0.122  41.368 226.550  1.00  0.00     0.116 C 
ATOM     26  H1  UNK     1       1.165  39.709 227.423  1.00  0.00     0.167 HD
ATOM     27  C12 UNK     1      -1.292  41.928 226.230  1.00  0.00     0.088 C 
ATOM     28  C11 UNK     1      -2.387  40.885 226.225  1.00  0.00     0.049 C 
ATOM     29  C9  UNK     1      -3.331  38.804 227.607  1.00  0.00     0.012 A 
ATOM     30  C17 UNK     1      -3.163  37.714 228.435  1.00  0.00     0.037 A 
BRANCH  25  31
ATOM     31  O2  UNK     1       1.228  42.074 226.201  1.00  0.00    -0.349 OA
ATOM     32  H2  UNK     1       2.093  41.742 226.410  1.00  0.00     0.219 HD
ENDBRANCH  25  31
ENDBRANCH  19  20
ENDBRANCH  18  19
ENDBRANCH   1  18
TORSDOF 8
ENDMDL
MODEL 8
REMARK VINA RESULT:      -6.8      1.972      2.963
REMARK  8 active torsions:
REMARK  status: ('A' for Active; 'I' for Inactive)
REMARK    1  A    between atoms: N1_1  and  C22_24 
REMARK    2  A    between atoms: C7_9  and  C15_17 
REMARK    3  A    between atoms: C7_9  and  C16_18 
REMARK    4  A    between atoms: C8_10  and  O1_27 
REMARK    5  A    between atoms: C14_16  and  C15_17 
REMARK    6  A    between atoms: C14_16  and  N3_26 
REMARK    7  A    between atoms: C16_18  and  O1_27 
REMARK    8  A    between atoms: C21_23  and  O2_28 
ROOT
ATOM      1  C7  UNK     1      -3.495  33.764 229.367  1.00  0.00     0.028 C 
ENDROOT
BRANCH   1   2
ATOM      2  C15 UNK     1      -2.601  34.212 230.555  1.00  0.00     0.032 C 
BRANCH   2   3
ATOM      3  C14 UNK     1      -3.298  33.862 231.932  1.00  0.00     0.272 C 
BRANCH   3   4
ATOM      4  N3  UNK     1      -2.713  34.573 232.887  1.00  0.00     0.091 N 
ATOM      5  C5  UNK     1      -1.753  35.356 232.354  1.00  0.00     0.292 C 
ATOM      6  C4  UNK     1      -1.306  36.366 233.368  1.00  0.00     0.153 C 
ATOM      7  N1  UNK     1      -1.020  35.699 234.620  1.00  0.00    -0.376 N 
ATOM      8  C6  UNK     1      -1.780  34.514 235.000  1.00  0.00     0.153 C 
ATOM      9  C23 UNK     1      -2.201  33.767 233.773  1.00  0.00     0.292 C 
BRANCH   7  10
ATOM     10  C22 UNK     1       0.052  36.234 235.542  1.00  0.00     0.053 A 
ATOM     11  C1  UNK     1      -0.292  37.379 236.511  1.00  0.00     0.031 A 
ATOM     12  C2  UNK     1       0.621  37.861 237.323  1.00  0.00     0.004 A 
ATOM     13  C3  UNK     1       2.041  37.278 237.310  1.00  0.00     0.026 A 
ATOM     14  C13 UNK     1       2.344  36.278 236.469  1.00  0.00     0.058 A 
ATOM     15  C20 UNK     1       1.293  35.722 235.533  1.00  0.00     0.082 A 
ATOM     16 Cl1  UNK     1       3.996  35.603 236.457  1.00  0.00    -0.082 Cl
ATOM     17 Cl2  UNK     1       1.723  34.396 234.425  1.00  0.00    -0.080 Cl
ENDBRANCH   7  10
ENDBRANCH   3   4
ENDBRANCH   2   3
ENDBRANCH   1   2
BRANCH   1  18
ATOM     18  C16 UNK     1      -3.908  35.024 228.590  1.00  0.00     0.175 C 
BRANCH  18  19
ATOM     19  O1  UNK     1      -3.440  36.184 229.278  1.00  0.00    -0.351 OA
BRANCH  19  20
ATOM     20  C8  UNK     1      -3.207  37.296 228.435  1.00  0.00     0.070 A 
ATOM     21  C10 UNK     1      -2.160  38.085 228.642  1.00  0.00     0.066 A 
ATOM     22  C19 UNK     1      -1.903  39.330 227.694  1.00  0.00     0.042 A 
ATOM     23  N2  UNK     1      -0.738  40.163 227.963  1.00  0.00    -0.340 N 
ATOM     24  C18 UNK     1      -2.724  39.585 226.717  1.00  0.00    -0.031 A 
ATOM     25  C21 UNK     1      -0.583  41.450 227.284  1.00  0.00     0.116 C 
ATOM     26  H1  UNK     1      -0.044  39.856 228.614  1.00  0.00     0.167 HD
ATOM     27  C12 UNK     1      -1.659  41.922 226.268  1.00  0.00     0.088 C 
ATOM     28  C11 UNK     1      -2.534  40.811 225.728  1.00  0.00     0.049 C 
ATOM     29  C9  UNK     1      -3.933  38.666 226.485  1.00  0.00     0.012 A 
ATOM     30  C17 UNK     1      -4.153  37.585 227.311  1.00  0.00     0.037 A 
BRANCH  25  31
ATOM     31  O2  UNK     1       0.503  42.227 227.534  1.00  0.00    -0.349 OA
ATOM     32  H2  UNK     1       1.164  42.354 226.863  1.00  0.00     0.219 HD
ENDBRANCH  25  31
ENDBRANCH  19  20
ENDBRANCH  18  19
ENDBRANCH   1  18
TORSDOF 8
ENDMDL
MODEL 9
REMARK VINA RESULT:      -6.8      4.448      9.436
REMARK  8 active torsions:
REMARK  status: ('A' for Active; 'I' for Inactive)
REMARK    1  A    between atoms: N1_1  and  C22_24 
REMARK    2  A    between atoms: C7_9  and  C15_17 
REMARK    3  A    between atoms: C7_9  and  C16_18 
REMARK    4  A    between atoms: C8_10  and  O1_27 
REMARK    5  A    between atoms: C14_16  and  C15_17 
REMARK    6  A    between atoms: C14_16  and  N3_26 
REMARK    7  A    between atoms: C16_18  and  O1_27 
REMARK    8  A    between atoms: C21_23  and  O2_28 
ROOT
ATOM      1  C7  UNK     1       1.270  31.627 232.494  1.00  0.00     0.028 C 
ENDROOT
BRANCH   1   2
ATOM      2  C15 UNK     1       0.473  32.516 231.502  1.00  0.00     0.032 C 
BRANCH   2   3
ATOM      3  C14 UNK     1       0.575  34.039 231.923  1.00  0.00     0.272 C 
BRANCH   3   4
ATOM      4  N3  UNK     1      -0.172  34.751 231.090  1.00  0.00     0.091 N 
ATOM      5  C5  UNK     1       0.563  35.139 230.029  1.00  0.00     0.292 C 
ATOM      6  C4  UNK     1      -0.339  35.673 228.957  1.00  0.00     0.153 C 
ATOM      7  N1  UNK     1      -1.255  36.633 229.533  1.00  0.00    -0.376 N 
ATOM      8  C6  UNK     1      -1.711  36.466 230.908  1.00  0.00     0.153 C 
ATOM      9  C23 UNK     1      -0.648  35.790 231.716  1.00  0.00     0.292 C 
BRANCH   7  10
ATOM     10  C22 UNK     1      -1.754  37.800 228.712  1.00  0.00     0.053 A 
ATOM     11  C1  UNK     1      -0.977  39.128 228.741  1.00  0.00     0.031 A 
ATOM     12  C2  UNK     1      -1.389  40.157 228.036  1.00  0.00     0.004 A 
ATOM     13  C3  UNK     1      -2.653  40.036 227.174  1.00  0.00     0.026 A 
ATOM     14  C13 UNK     1      -3.333  38.880 227.144  1.00  0.00     0.058 A 
ATOM     15  C20 UNK     1      -2.859  37.694 227.956  1.00  0.00     0.082 A 
ATOM     16 Cl1  UNK     1      -4.802  38.744 226.142  1.00  0.00    -0.082 Cl
ATOM     17 Cl2  UNK     1      -3.781  36.172 227.899  1.00  0.00    -0.080 Cl
ENDBRANCH   7  10
ENDBRANCH   3   4
ENDBRANCH   2   3
ENDBRANCH   1   2
BRANCH   1  18
ATOM     18  C16 UNK     1       0.447  31.514 233.787  1.00  0.00     0.175 C 
BRANCH  18  19
ATOM     19  O1  UNK     1       1.302  31.699 234.915  1.00  0.00    -0.351 OA
BRANCH  19  20
ATOM     20  C8  UNK     1       1.289  33.015 235.435  1.00  0.00     0.070 A 
ATOM     21  C10 UNK     1       2.426  33.675 235.614  1.00  0.00     0.066 A 
ATOM     22  C19 UNK     1       2.405  35.150 236.197  1.00  0.00     0.042 A 
ATOM     23  N2  UNK     1       3.681  35.832 236.372  1.00  0.00    -0.340 N 
ATOM     24  C18 UNK     1       1.274  35.711 236.509  1.00  0.00    -0.031 A 
ATOM     25  C21 UNK     1       3.747  37.086 237.123  1.00  0.00     0.116 C 
ATOM     26  H1  UNK     1       4.514  35.442 235.979  1.00  0.00     0.167 HD
ATOM     27  C12 UNK     1       2.450  37.694 237.726  1.00  0.00     0.088 C 
ATOM     28  C11 UNK     1       1.173  37.181 237.098  1.00  0.00     0.049 C 
ATOM     29  C9  UNK     1      -0.038  34.939 236.299  1.00  0.00     0.012 A 
ATOM     30  C17 UNK     1      -0.016  33.657 235.792  1.00  0.00     0.037 A 
BRANCH  25  31
ATOM     31  O2  UNK     1       4.935  37.723 237.286  1.00  0.00    -0.349 OA
ATOM     32  H2  UNK     1       5.040  38.621 236.994  1.00  0.00     0.219 HD
ENDBRANCH  25  31
ENDBRANCH  19  20
ENDBRANCH  18  19
ENDBRANCH   1  18
TORSDOF 8
ENDMDL
