MODEL 1
REMARK VINA RESULT:      -5.9      0.000      0.000
REMARK  11 active torsions:
REMARK  status: ('A' for Active; 'I' for Inactive)
REMARK    1  A    between atoms: C2_2  and  C3_3 
REMARK    2  A    between atoms: C3_3  and  C4_4 
REMARK    3  A    between atoms: C4_4  and  C5_5 
REMARK    4  A    between atoms: C12_13  and  C13_14 
REMARK    5  A    between atoms: C13_14  and  C14_16 
REMARK    6  A    between atoms: C19_23  and  O3_24 
REMARK    7  A    between atoms: O3_24  and  C20_25 
REMARK    8  A    between atoms: C20_25  and  C21_26 
REMARK    9  A    between atoms: C21_26  and  N1_27 
REMARK   10  A    between atoms: N1_27  and  C22_28 
REMARK   11  A    between atoms: N1_27  and  C24_30 
ROOT
ATOM      1  C14 UNK     1       1.927  33.937 235.767  1.00  0.00     0.018 A 
ATOM      2  C15 UNK     1       0.979  33.635 236.720  1.00  0.00     0.036 A 
ATOM      3  C16 UNK     1      -0.268  33.195 236.329  1.00  0.00     0.042 A 
ATOM      4  I1  UNK     1      -1.610  32.789 237.860  1.00  0.00    -0.042 I 
ATOM      5  C17 UNK     1       1.637  33.775 234.456  1.00  0.00     0.036 A 
ATOM      6  C18 UNK     1       0.429  33.356 234.025  1.00  0.00     0.042 A 
ATOM      7  I2  UNK     1       0.485  33.281 231.986  1.00  0.00    -0.042 I 
ATOM      8  C19 UNK     1      -0.542  33.051 234.969  1.00  0.00     0.101 A 
ENDROOT
BRANCH   1   9
ATOM      9  C13 UNK     1       3.189  34.350 236.072  1.00  0.00     0.195 C 
ATOM     10  O2  UNK     1       3.853  35.098 235.356  1.00  0.00    -0.287 OA
BRANCH   9  11
ATOM     11  C12 UNK     1       3.732  33.654 237.035  1.00  0.00     0.058 A 
ATOM     12  C5  UNK     1       3.884  33.992 238.307  1.00  0.00     0.069 A 
ATOM     13  O1  UNK     1       4.466  33.012 238.886  1.00  0.00    -0.313 OA
ATOM     14  C6  UNK     1       4.641  32.038 237.965  1.00  0.00     0.087 A 
ATOM     15  C7  UNK     1       5.151  30.837 238.029  1.00  0.00     0.038 A 
ATOM     16  C11 UNK     1       4.176  32.443 236.829  1.00  0.00     0.014 A 
ATOM     17  C8  UNK     1       5.224  30.020 236.932  1.00  0.00     0.003 A 
ATOM     18  C9  UNK     1       4.738  30.438 235.726  1.00  0.00     0.001 A 
ATOM     19  C10 UNK     1       4.201  31.703 235.728  1.00  0.00     0.015 A 
BRANCH  12  20
ATOM     20  C4  UNK     1       3.509  35.357 238.925  1.00  0.00     0.066 C 
BRANCH  20  21
ATOM     21  C3  UNK     1       4.538  36.479 238.770  1.00  0.00     0.006 C 
BRANCH  21  22
ATOM     22  C2  UNK     1       4.010  37.522 237.776  1.00  0.00    -0.004 C 
ATOM     23  C1  UNK     1       2.488  37.439 237.680  1.00  0.00     0.005 C 
ENDBRANCH  21  22
ENDBRANCH  20  21
ENDBRANCH  12  20
ENDBRANCH   9  11
ENDBRANCH   1   9
BRANCH   8  24
ATOM     24  O3  UNK     1      -1.755  32.601 234.624  1.00  0.00    -0.347 OA
BRANCH  24  25
ATOM     25  C20 UNK     1      -2.590  33.327 233.736  1.00  0.00     0.206 C 
BRANCH  25  26
ATOM     26  C21 UNK     1      -2.899  34.578 234.537  1.00  0.00     0.299 C 
BRANCH  26  27
ATOM     27  N1  UNK     1      -2.735  35.803 233.766  1.00  0.00     0.089 N 
BRANCH  27  28
ATOM     28  C22 UNK     1      -2.846  35.619 232.296  1.00  0.00     0.268 C 
ATOM     29  C23 UNK     1      -1.947  36.557 231.465  1.00  0.00     0.037 C 
ENDBRANCH  27  28
BRANCH  27  30
ATOM     30  C24 UNK     1      -1.493  36.488 234.167  1.00  0.00     0.268 C 
ATOM     31  C25 UNK     1      -1.312  36.609 235.683  1.00  0.00     0.037 C 
ENDBRANCH  27  30
ENDBRANCH  26  27
ENDBRANCH  25  26
ENDBRANCH  24  25
ENDBRANCH   8  24
TORSDOF 11
ENDMDL
MODEL 2
REMARK VINA RESULT:      -5.6      2.433      3.454
REMARK  11 active torsions:
REMARK  status: ('A' for Active; 'I' for Inactive)
REMARK    1  A    between atoms: C2_2  and  C3_3 
REMARK    2  A    between atoms: C3_3  and  C4_4 
REMARK    3  A    between atoms: C4_4  and  C5_5 
REMARK    4  A    between atoms: C12_13  and  C13_14 
REMARK    5  A    between atoms: C13_14  and  C14_16 
REMARK    6  A    between atoms: C19_23  and  O3_24 
REMARK    7  A    between atoms: O3_24  and  C20_25 
REMARK    8  A    between atoms: C20_25  and  C21_26 
REMARK    9  A    between atoms: C21_26  and  N1_27 
REMARK   10  A    between atoms: N1_27  and  C22_28 
REMARK   11  A    between atoms: N1_27  and  C24_30 
ROOT
ATOM      1  C14 UNK     1       0.605  34.847 234.679  1.00  0.00     0.018 A 
ATOM      2  C15 UNK     1      -0.047  34.552 235.856  1.00  0.00     0.036 A 
ATOM      3  C16 UNK     1      -1.314  34.008 235.818  1.00  0.00     0.042 A 
ATOM      4  I1  UNK     1      -2.194  33.624 237.659  1.00  0.00    -0.042 I 
ATOM      5  C17 UNK     1       0.011  34.577 233.495  1.00  0.00     0.036 A 
ATOM      6  C18 UNK     1      -1.229  34.053 233.407  1.00  0.00     0.042 A 
ATOM      7  I2  UNK     1      -1.679  33.841 231.427  1.00  0.00    -0.042 I 
ATOM      8  C19 UNK     1      -1.907  33.754 234.581  1.00  0.00     0.101 A 
ENDROOT
BRANCH   1   9
ATOM      9  C13 UNK     1       1.867  35.359 234.632  1.00  0.00     0.195 C 
ATOM     10  O2  UNK     1       2.352  35.887 233.631  1.00  0.00    -0.287 OA
BRANCH   9  11
ATOM     11  C12 UNK     1       2.607  34.982 235.641  1.00  0.00     0.058 A 
ATOM     12  C5  UNK     1       2.990  35.695 236.689  1.00  0.00     0.069 A 
ATOM     13  O1  UNK     1       3.703  34.926 237.421  1.00  0.00    -0.313 OA
ATOM     14  C6  UNK     1       3.727  33.709 236.835  1.00  0.00     0.087 A 
ATOM     15  C7  UNK     1       4.276  32.572 237.171  1.00  0.00     0.038 A 
ATOM     16  C11 UNK     1       3.039  33.754 235.741  1.00  0.00     0.014 A 
ATOM     17  C8  UNK     1       4.162  31.452 236.391  1.00  0.00     0.003 A 
ATOM     18  C9  UNK     1       3.439  31.489 235.232  1.00  0.00     0.001 A 
ATOM     19  C10 UNK     1       2.875  32.707 234.943  1.00  0.00     0.015 A 
BRANCH  12  20
ATOM     20  C4  UNK     1       2.699  37.196 236.911  1.00  0.00     0.066 C 
BRANCH  20  21
ATOM     21  C3  UNK     1       1.345  37.539 237.536  1.00  0.00     0.006 C 
BRANCH  21  22
ATOM     22  C2  UNK     1       0.399  38.066 236.447  1.00  0.00    -0.004 C 
ATOM     23  C1  UNK     1      -1.026  38.161 236.985  1.00  0.00     0.005 C 
ENDBRANCH  21  22
ENDBRANCH  20  21
ENDBRANCH  12  20
ENDBRANCH   9  11
ENDBRANCH   1   9
BRANCH   8  24
ATOM     24  O3  UNK     1      -3.128  33.204 234.580  1.00  0.00    -0.347 OA
BRANCH  24  25
ATOM     25  C20 UNK     1      -4.286  33.973 234.295  1.00  0.00     0.206 C 
BRANCH  25  26
ATOM     26  C21 UNK     1      -5.180  32.962 233.603  1.00  0.00     0.299 C 
BRANCH  26  27
ATOM     27  N1  UNK     1      -6.512  32.882 234.191  1.00  0.00     0.089 N 
BRANCH  27  28
ATOM     28  C22 UNK     1      -6.974  31.498 234.471  1.00  0.00     0.268 C 
ATOM     29  C23 UNK     1      -5.991  30.653 235.306  1.00  0.00     0.037 C 
ENDBRANCH  27  28
BRANCH  27  30
ATOM     30  C24 UNK     1      -7.467  33.654 233.377  1.00  0.00     0.268 C 
ATOM     31  C25 UNK     1      -8.405  34.544 234.197  1.00  0.00     0.037 C 
ENDBRANCH  27  30
ENDBRANCH  26  27
ENDBRANCH  25  26
ENDBRANCH  24  25
ENDBRANCH   8  24
TORSDOF 11
ENDMDL
MODEL 3
REMARK VINA RESULT:      -5.6      2.104      5.025
REMARK  11 active torsions:
REMARK  status: ('A' for Active; 'I' for Inactive)
REMARK    1  A    between atoms: C2_2  and  C3_3 
REMARK    2  A    between atoms: C3_3  and  C4_4 
REMARK    3  A    between atoms: C4_4  and  C5_5 
REMARK    4  A    between atoms: C12_13  and  C13_14 
REMARK    5  A    between atoms: C13_14  and  C14_16 
REMARK    6  A    between atoms: C19_23  and  O3_24 
REMARK    7  A    between atoms: O3_24  and  C20_25 
REMARK    8  A    between atoms: C20_25  and  C21_26 
REMARK    9  A    between atoms: C21_26  and  N1_27 
REMARK   10  A    between atoms: N1_27  and  C22_28 
REMARK   11  A    between atoms: N1_27  and  C24_30 
ROOT
ATOM      1  C14 UNK     1       0.130  33.317 234.686  1.00  0.00     0.018 A 
ATOM      2  C15 UNK     1       0.706  33.825 233.542  1.00  0.00     0.036 A 
ATOM      3  C16 UNK     1       0.048  33.710 232.335  1.00  0.00     0.042 A 
ATOM      4  I1  UNK     1       1.029  34.501 230.686  1.00  0.00    -0.042 I 
ATOM      5  C17 UNK     1      -1.088  32.733 234.623  1.00  0.00     0.036 A 
ATOM      6  C18 UNK     1      -1.767  32.590 233.466  1.00  0.00     0.042 A 
ATOM      7  I2  UNK     1      -3.530  31.653 233.886  1.00  0.00    -0.042 I 
ATOM      8  C19 UNK     1      -1.201  33.090 232.300  1.00  0.00     0.101 A 
ENDROOT
BRANCH   1   9
ATOM      9  C13 UNK     1       0.702  33.415 235.918  1.00  0.00     0.195 C 
ATOM     10  O2  UNK     1       0.497  32.616 236.831  1.00  0.00    -0.287 OA
BRANCH   9  11
ATOM     11  C12 UNK     1       1.252  34.581 236.132  1.00  0.00     0.058 A 
ATOM     12  C5  UNK     1       2.537  34.899 236.112  1.00  0.00     0.069 A 
ATOM     13  O1  UNK     1       2.616  36.147 236.379  1.00  0.00    -0.313 OA
ATOM     14  C6  UNK     1       1.357  36.615 236.527  1.00  0.00     0.087 A 
ATOM     15  C7  UNK     1       0.874  37.803 236.774  1.00  0.00     0.038 A 
ATOM     16  C11 UNK     1       0.523  35.640 236.363  1.00  0.00     0.014 A 
ATOM     17  C8  UNK     1      -0.472  38.032 236.886  1.00  0.00     0.003 A 
ATOM     18  C9  UNK     1      -1.361  37.009 236.718  1.00  0.00     0.001 A 
ATOM     19  C10 UNK     1      -0.793  35.789 236.445  1.00  0.00     0.015 A 
BRANCH  12  20
ATOM     20  C4  UNK     1       3.705  33.910 235.902  1.00  0.00     0.066 C 
BRANCH  20  21
ATOM     21  C3  UNK     1       4.001  32.953 237.059  1.00  0.00     0.006 C 
BRANCH  21  22
ATOM     22  C2  UNK     1       4.359  31.569 236.498  1.00  0.00    -0.004 C 
ATOM     23  C1  UNK     1       3.749  31.387 235.111  1.00  0.00     0.005 C 
ENDBRANCH  21  22
ENDBRANCH  20  21
ENDBRANCH  12  20
ENDBRANCH   9  11
ENDBRANCH   1   9
BRANCH   8  24
ATOM     24  O3  UNK     1      -1.823  33.015 231.116  1.00  0.00    -0.347 OA
BRANCH  24  25
ATOM     25  C20 UNK     1      -3.104  33.591 230.915  1.00  0.00     0.206 C 
BRANCH  25  26
ATOM     26  C21 UNK     1      -2.810  34.683 229.904  1.00  0.00     0.299 C 
BRANCH  26  27
ATOM     27  N1  UNK     1      -2.362  35.925 230.520  1.00  0.00     0.089 N 
BRANCH  27  28
ATOM     28  C22 UNK     1      -2.979  36.208 231.842  1.00  0.00     0.268 C 
ATOM     29  C23 UNK     1      -1.971  36.548 232.958  1.00  0.00     0.037 C 
ENDBRANCH  27  28
BRANCH  27  30
ATOM     30  C24 UNK     1      -2.506  37.040 229.568  1.00  0.00     0.268 C 
ATOM     31  C25 UNK     1      -1.370  37.136 228.546  1.00  0.00     0.037 C 
ENDBRANCH  27  30
ENDBRANCH  26  27
ENDBRANCH  25  26
ENDBRANCH  24  25
ENDBRANCH   8  24
TORSDOF 11
ENDMDL
MODEL 4
REMARK VINA RESULT:      -5.5      2.703      5.781
REMARK  11 active torsions:
REMARK  status: ('A' for Active; 'I' for Inactive)
REMARK    1  A    between atoms: C2_2  and  C3_3 
REMARK    2  A    between atoms: C3_3  and  C4_4 
REMARK    3  A    between atoms: C4_4  and  C5_5 
REMARK    4  A    between atoms: C12_13  and  C13_14 
REMARK    5  A    between atoms: C13_14  and  C14_16 
REMARK    6  A    between atoms: C19_23  and  O3_24 
REMARK    7  A    between atoms: O3_24  and  C20_25 
REMARK    8  A    between atoms: C20_25  and  C21_26 
REMARK    9  A    between atoms: C21_26  and  N1_27 
REMARK   10  A    between atoms: N1_27  and  C22_28 
REMARK   11  A    between atoms: N1_27  and  C24_30 
ROOT
ATOM      1  C14 UNK     1      -1.118  33.754 234.509  1.00  0.00     0.018 A 
ATOM      2  C15 UNK     1      -0.203  34.041 233.520  1.00  0.00     0.036 A 
ATOM      3  C16 UNK     1      -0.643  34.349 232.250  1.00  0.00     0.042 A 
ATOM      4  I1  UNK     1       0.835  34.747 230.848  1.00  0.00    -0.042 I 
ATOM      5  C17 UNK     1      -2.441  33.800 234.235  1.00  0.00     0.036 A 
ATOM      6  C18 UNK     1      -2.919  34.087 233.007  1.00  0.00     0.042 A 
ATOM      7  I2  UNK     1      -4.957  34.026 233.099  1.00  0.00    -0.042 I 
ATOM      8  C19 UNK     1      -2.014  34.375 231.994  1.00  0.00     0.101 A 
ENDROOT
BRANCH   1   9
ATOM      9  C13 UNK     1      -0.765  33.468 235.794  1.00  0.00     0.195 C 
ATOM     10  O2  UNK     1      -1.474  32.829 236.570  1.00  0.00    -0.287 OA
BRANCH   9  11
ATOM     11  C12 UNK     1       0.252  34.175 236.211  1.00  0.00     0.058 A 
ATOM     12  C5  UNK     1       1.505  33.787 236.385  1.00  0.00     0.069 A 
ATOM     13  O1  UNK     1       2.155  34.804 236.807  1.00  0.00    -0.313 OA
ATOM     14  C6  UNK     1       1.297  35.847 236.856  1.00  0.00     0.087 A 
ATOM     15  C7  UNK     1       1.443  37.103 237.184  1.00  0.00     0.038 A 
ATOM     16  C11 UNK     1       0.126  35.448 236.477  1.00  0.00     0.014 A 
ATOM     17  C8  UNK     1       0.397  37.987 237.158  1.00  0.00     0.003 A 
ATOM     18  C9  UNK     1      -0.844  37.576 236.762  1.00  0.00     0.001 A 
ATOM     19  C10 UNK     1      -0.929  36.249 236.416  1.00  0.00     0.015 A 
BRANCH  12  20
ATOM     20  C4  UNK     1       2.035  32.347 236.201  1.00  0.00     0.066 C 
BRANCH  20  21
ATOM     21  C3  UNK     1       2.564  31.992 234.810  1.00  0.00     0.006 C 
BRANCH  21  22
ATOM     22  C2  UNK     1       1.681  30.898 234.192  1.00  0.00    -0.004 C 
ATOM     23  C1  UNK     1       1.634  31.051 232.674  1.00  0.00     0.005 C 
ENDBRANCH  21  22
ENDBRANCH  20  21
ENDBRANCH  12  20
ENDBRANCH   9  11
ENDBRANCH   1   9
BRANCH   8  24
ATOM     24  O3  UNK     1      -2.408  34.700 230.756  1.00  0.00    -0.347 OA
BRANCH  24  25
ATOM     25  C20 UNK     1      -2.925  35.986 230.457  1.00  0.00     0.206 C 
BRANCH  25  26
ATOM     26  C21 UNK     1      -2.913  35.992 228.939  1.00  0.00     0.299 C 
BRANCH  26  27
ATOM     27  N1  UNK     1      -2.481  37.265 228.377  1.00  0.00     0.089 N 
BRANCH  27  28
ATOM     28  C22 UNK     1      -1.424  37.952 229.163  1.00  0.00     0.268 C 
ATOM     29  C23 UNK     1      -1.170  39.416 228.751  1.00  0.00     0.037 C 
ENDBRANCH  27  28
BRANCH  27  30
ATOM     30  C24 UNK     1      -3.651  38.122 228.116  1.00  0.00     0.268 C 
ATOM     31  C25 UNK     1      -4.655  37.519 227.130  1.00  0.00     0.037 C 
ENDBRANCH  27  30
ENDBRANCH  26  27
ENDBRANCH  25  26
ENDBRANCH  24  25
ENDBRANCH   8  24
TORSDOF 11
ENDMDL
MODEL 5
REMARK VINA RESULT:      -5.4      2.179      4.533
REMARK  11 active torsions:
REMARK  status: ('A' for Active; 'I' for Inactive)
REMARK    1  A    between atoms: C2_2  and  C3_3 
REMARK    2  A    between atoms: C3_3  and  C4_4 
REMARK    3  A    between atoms: C4_4  and  C5_5 
REMARK    4  A    between atoms: C12_13  and  C13_14 
REMARK    5  A    between atoms: C13_14  and  C14_16 
REMARK    6  A    between atoms: C19_23  and  O3_24 
REMARK    7  A    between atoms: O3_24  and  C20_25 
REMARK    8  A    between atoms: C20_25  and  C21_26 
REMARK    9  A    between atoms: C21_26  and  N1_27 
REMARK   10  A    between atoms: N1_27  and  C22_28 
REMARK   11  A    between atoms: N1_27  and  C24_30 
ROOT
ATOM      1  C14 UNK     1      -0.629  33.088 235.770  1.00  0.00     0.018 A 
ATOM      2  C15 UNK     1      -1.888  33.528 235.423  1.00  0.00     0.036 A 
ATOM      3  C16 UNK     1      -2.357  33.319 234.143  1.00  0.00     0.042 A 
ATOM      4  I1  UNK     1      -4.261  34.043 233.743  1.00  0.00    -0.042 I 
ATOM      5  C17 UNK     1       0.128  32.432 234.862  1.00  0.00     0.036 A 
ATOM      6  C18 UNK     1      -0.284  32.211 233.596  1.00  0.00     0.042 A 
ATOM      7  I2  UNK     1       1.199  31.201 232.623  1.00  0.00    -0.042 I 
ATOM      8  C19 UNK     1      -1.548  32.651 233.224  1.00  0.00     0.101 A 
ENDROOT
BRANCH   1   9
ATOM      9  C13 UNK     1      -0.106  33.230 237.020  1.00  0.00     0.195 C 
ATOM     10  O2  UNK     1      -0.706  32.923 238.049  1.00  0.00    -0.287 OA
BRANCH   9  11
ATOM     11  C12 UNK     1       0.960  33.985 237.041  1.00  0.00     0.058 A 
ATOM     12  C5  UNK     1       2.229  33.612 237.113  1.00  0.00     0.069 A 
ATOM     13  O1  UNK     1       2.932  34.680 237.108  1.00  0.00    -0.313 OA
ATOM     14  C6  UNK     1       2.086  35.727 236.993  1.00  0.00     0.087 A 
ATOM     15  C7  UNK     1       2.275  37.017 236.913  1.00  0.00     0.038 A 
ATOM     16  C11 UNK     1       0.872  35.285 236.943  1.00  0.00     0.014 A 
ATOM     17  C8  UNK     1       1.232  37.899 236.804  1.00  0.00     0.003 A 
ATOM     18  C9  UNK     1      -0.054  37.442 236.753  1.00  0.00     0.001 A 
ATOM     19  C10 UNK     1      -0.186  36.077 236.826  1.00  0.00     0.015 A 
BRANCH  12  20
ATOM     20  C4  UNK     1       2.731  32.160 237.270  1.00  0.00     0.066 C 
BRANCH  20  21
ATOM     21  C3  UNK     1       3.375  31.526 236.034  1.00  0.00     0.006 C 
BRANCH  21  22
ATOM     22  C2  UNK     1       4.837  31.174 236.344  1.00  0.00    -0.004 C 
ATOM     23  C1  UNK     1       5.136  31.408 237.823  1.00  0.00     0.005 C 
ENDBRANCH  21  22
ENDBRANCH  20  21
ENDBRANCH  12  20
ENDBRANCH   9  11
ENDBRANCH   1   9
BRANCH   8  24
ATOM     24  O3  UNK     1      -2.042  32.445 231.996  1.00  0.00    -0.347 OA
BRANCH  24  25
ATOM     25  C20 UNK     1      -1.356  32.892 230.837  1.00  0.00     0.206 C 
BRANCH  25  26
ATOM     26  C21 UNK     1      -1.787  34.345 230.751  1.00  0.00     0.299 C 
BRANCH  26  27
ATOM     27  N1  UNK     1      -0.683  35.279 230.934  1.00  0.00     0.089 N 
BRANCH  27  28
ATOM     28  C22 UNK     1       0.662  34.648 230.900  1.00  0.00     0.268 C 
ATOM     29  C23 UNK     1       1.508  35.013 229.663  1.00  0.00     0.037 C 
ENDBRANCH  27  28
BRANCH  27  30
ATOM     30  C24 UNK     1      -0.906  36.091 232.142  1.00  0.00     0.268 C 
ATOM     31  C25 UNK     1       0.189  35.943 233.202  1.00  0.00     0.037 C 
ENDBRANCH  27  30
ENDBRANCH  26  27
ENDBRANCH  25  26
ENDBRANCH  24  25
ENDBRANCH   8  24
TORSDOF 11
ENDMDL
MODEL 6
REMARK VINA RESULT:      -5.4      2.554      4.654
REMARK  11 active torsions:
REMARK  status: ('A' for Active; 'I' for Inactive)
REMARK    1  A    between atoms: C2_2  and  C3_3 
REMARK    2  A    between atoms: C3_3  and  C4_4 
REMARK    3  A    between atoms: C4_4  and  C5_5 
REMARK    4  A    between atoms: C12_13  and  C13_14 
REMARK    5  A    between atoms: C13_14  and  C14_16 
REMARK    6  A    between atoms: C19_23  and  O3_24 
REMARK    7  A    between atoms: O3_24  and  C20_25 
REMARK    8  A    between atoms: C20_25  and  C21_26 
REMARK    9  A    between atoms: C21_26  and  N1_27 
REMARK   10  A    between atoms: N1_27  and  C22_28 
REMARK   11  A    between atoms: N1_27  and  C24_30 
ROOT
ATOM      1  C14 UNK     1       0.489  35.714 234.887  1.00  0.00     0.018 A 
ATOM      2  C15 UNK     1      -0.138  35.155 235.980  1.00  0.00     0.036 A 
ATOM      3  C16 UNK     1      -1.485  34.868 235.922  1.00  0.00     0.042 A 
ATOM      4  I1  UNK     1      -2.312  34.042 237.638  1.00  0.00    -0.042 I 
ATOM      5  C17 UNK     1      -0.215  35.954 233.758  1.00  0.00     0.036 A 
ATOM      6  C18 UNK     1      -1.536  35.697 233.657  1.00  0.00     0.042 A 
ATOM      7  I2  UNK     1      -2.134  36.230 231.779  1.00  0.00    -0.042 I 
ATOM      8  C19 UNK     1      -2.188  35.138 234.748  1.00  0.00     0.101 A 
ENDROOT
BRANCH   1   9
ATOM      9  C13 UNK     1       1.820  36.002 234.855  1.00  0.00     0.195 C 
ATOM     10  O2  UNK     1       2.369  36.588 233.923  1.00  0.00    -0.287 OA
BRANCH   9  11
ATOM     11  C12 UNK     1       2.503  35.348 235.757  1.00  0.00     0.058 A 
ATOM     12  C5  UNK     1       2.829  34.065 235.771  1.00  0.00     0.069 A 
ATOM     13  O1  UNK     1       3.496  33.861 236.842  1.00  0.00    -0.313 OA
ATOM     14  C6  UNK     1       3.618  35.045 237.480  1.00  0.00     0.087 A 
ATOM     15  C7  UNK     1       4.219  35.401 238.584  1.00  0.00     0.038 A 
ATOM     16  C11 UNK     1       3.009  35.958 236.796  1.00  0.00     0.014 A 
ATOM     17  C8  UNK     1       4.197  36.693 239.039  1.00  0.00     0.003 A 
ATOM     18  C9  UNK     1       3.554  37.665 238.326  1.00  0.00     0.001 A 
ATOM     19  C10 UNK     1       2.957  37.231 237.168  1.00  0.00     0.015 A 
BRANCH  12  20
ATOM     20  C4  UNK     1       2.388  33.015 234.727  1.00  0.00     0.066 C 
BRANCH  20  21
ATOM     21  C3  UNK     1       1.892  31.676 235.278  1.00  0.00     0.006 C 
BRANCH  21  22
ATOM     22  C2  UNK     1       0.357  31.663 235.283  1.00  0.00    -0.004 C 
ATOM     23  C1  UNK     1      -0.179  32.020 233.898  1.00  0.00     0.005 C 
ENDBRANCH  21  22
ENDBRANCH  20  21
ENDBRANCH  12  20
ENDBRANCH   9  11
ENDBRANCH   1   9
BRANCH   8  24
ATOM     24  O3  UNK     1      -3.490  34.826 234.718  1.00  0.00    -0.347 OA
BRANCH  24  25
ATOM     25  C20 UNK     1      -3.946  33.610 234.146  1.00  0.00     0.206 C 
BRANCH  25  26
ATOM     26  C21 UNK     1      -5.176  34.060 233.378  1.00  0.00     0.299 C 
BRANCH  26  27
ATOM     27  N1  UNK     1      -6.424  33.680 234.028  1.00  0.00     0.089 N 
BRANCH  27  28
ATOM     28  C22 UNK     1      -6.648  32.214 234.109  1.00  0.00     0.268 C 
ATOM     29  C23 UNK     1      -6.944  31.536 232.756  1.00  0.00     0.037 C 
ENDBRANCH  27  28
BRANCH  27  30
ATOM     30  C24 UNK     1      -7.551  34.401 233.411  1.00  0.00     0.268 C 
ATOM     31  C25 UNK     1      -8.784  34.514 234.312  1.00  0.00     0.037 C 
ENDBRANCH  27  30
ENDBRANCH  26  27
ENDBRANCH  25  26
ENDBRANCH  24  25
ENDBRANCH   8  24
TORSDOF 11
ENDMDL
MODEL 7
REMARK VINA RESULT:      -5.4      1.637      2.498
REMARK  11 active torsions:
REMARK  status: ('A' for Active; 'I' for Inactive)
REMARK    1  A    between atoms: C2_2  and  C3_3 
REMARK    2  A    between atoms: C3_3  and  C4_4 
REMARK    3  A    between atoms: C4_4  and  C5_5 
REMARK    4  A    between atoms: C12_13  and  C13_14 
REMARK    5  A    between atoms: C13_14  and  C14_16 
REMARK    6  A    between atoms: C19_23  and  O3_24 
REMARK    7  A    between atoms: O3_24  and  C20_25 
REMARK    8  A    between atoms: C20_25  and  C21_26 
REMARK    9  A    between atoms: C21_26  and  N1_27 
REMARK   10  A    between atoms: N1_27  and  C22_28 
REMARK   11  A    between atoms: N1_27  and  C24_30 
ROOT
ATOM      1  C14 UNK     1       2.053  33.726 235.794  1.00  0.00     0.018 A 
ATOM      2  C15 UNK     1       0.982  33.587 236.649  1.00  0.00     0.036 A 
ATOM      3  C16 UNK     1      -0.292  33.869 236.201  1.00  0.00     0.042 A 
ATOM      4  I1  UNK     1      -1.816  33.634 237.590  1.00  0.00    -0.042 I 
ATOM      5  C17 UNK     1       1.847  34.114 234.515  1.00  0.00     0.036 A 
ATOM      6  C18 UNK     1       0.622  34.409 234.034  1.00  0.00     0.042 A 
ATOM      7  I2  UNK     1       0.832  34.943 232.075  1.00  0.00    -0.042 I 
ATOM      8  C19 UNK     1      -0.471  34.280 234.880  1.00  0.00     0.101 A 
ENDROOT
BRANCH   1   9
ATOM      9  C13 UNK     1       3.337  33.441 236.151  1.00  0.00     0.195 C 
ATOM     10  O2  UNK     1       4.056  32.652 235.539  1.00  0.00    -0.287 OA
BRANCH   9  11
ATOM     11  C12 UNK     1       3.633  33.852 237.355  1.00  0.00     0.058 A 
ATOM     12  C5  UNK     1       3.771  35.096 237.787  1.00  0.00     0.069 A 
ATOM     13  O1  UNK     1       4.064  35.030 239.029  1.00  0.00    -0.313 OA
ATOM     14  C6  UNK     1       4.069  33.724 239.379  1.00  0.00     0.087 A 
ATOM     15  C7  UNK     1       4.275  33.110 240.513  1.00  0.00     0.038 A 
ATOM     16  C11 UNK     1       3.792  33.008 238.339  1.00  0.00     0.014 A 
ATOM     17  C8  UNK     1       4.229  31.745 240.619  1.00  0.00     0.003 A 
ATOM     18  C9  UNK     1       3.940  30.978 239.526  1.00  0.00     0.001 A 
ATOM     19  C10 UNK     1       3.718  31.684 238.368  1.00  0.00     0.015 A 
BRANCH  12  20
ATOM     20  C4  UNK     1       3.686  36.366 236.911  1.00  0.00     0.066 C 
BRANCH  20  21
ATOM     21  C3  UNK     1       2.653  37.414 237.332  1.00  0.00     0.006 C 
BRANCH  21  22
ATOM     22  C2  UNK     1       1.563  37.517 236.256  1.00  0.00    -0.004 C 
ATOM     23  C1  UNK     1       0.206  37.785 236.902  1.00  0.00     0.005 C 
ENDBRANCH  21  22
ENDBRANCH  20  21
ENDBRANCH  12  20
ENDBRANCH   9  11
ENDBRANCH   1   9
BRANCH   8  24
ATOM     24  O3  UNK     1      -1.723  34.524 234.471  1.00  0.00    -0.347 OA
BRANCH  24  25
ATOM     25  C20 UNK     1      -2.192  35.849 234.272  1.00  0.00     0.206 C 
BRANCH  25  26
ATOM     26  C21 UNK     1      -3.015  35.710 233.005  1.00  0.00     0.299 C 
BRANCH  26  27
ATOM     27  N1  UNK     1      -3.448  34.341 232.754  1.00  0.00     0.089 N 
BRANCH  27  28
ATOM     28  C22 UNK     1      -3.023  33.799 231.437  1.00  0.00     0.268 C 
ATOM     29  C23 UNK     1      -2.332  32.422 231.506  1.00  0.00     0.037 C 
ENDBRANCH  27  28
BRANCH  27  30
ATOM     30  C24 UNK     1      -4.898  34.221 232.984  1.00  0.00     0.268 C 
ATOM     31  C25 UNK     1      -5.276  33.178 234.038  1.00  0.00     0.037 C 
ENDBRANCH  27  30
ENDBRANCH  26  27
ENDBRANCH  25  26
ENDBRANCH  24  25
ENDBRANCH   8  24
TORSDOF 11
ENDMDL
MODEL 8
REMARK VINA RESULT:      -5.3      2.790      7.540
REMARK  11 active torsions:
REMARK  status: ('A' for Active; 'I' for Inactive)
REMARK    1  A    between atoms: C2_2  and  C3_3 
REMARK    2  A    between atoms: C3_3  and  C4_4 
REMARK    3  A    between atoms: C4_4  and  C5_5 
REMARK    4  A    between atoms: C12_13  and  C13_14 
REMARK    5  A    between atoms: C13_14  and  C14_16 
REMARK    6  A    between atoms: C19_23  and  O3_24 
REMARK    7  A    between atoms: O3_24  and  C20_25 
REMARK    8  A    between atoms: C20_25  and  C21_26 
REMARK    9  A    between atoms: C21_26  and  N1_27 
REMARK   10  A    between atoms: N1_27  and  C22_28 
REMARK   11  A    between atoms: N1_27  and  C24_30 
ROOT
ATOM      1  C14 UNK     1       0.366  35.924 235.870  1.00  0.00     0.018 A 
ATOM      2  C15 UNK     1       0.499  34.662 235.334  1.00  0.00     0.036 A 
ATOM      3  C16 UNK     1       1.680  33.969 235.500  1.00  0.00     0.042 A 
ATOM      4  I1  UNK     1       1.760  32.086 234.631  1.00  0.00    -0.042 I 
ATOM      5  C17 UNK     1       1.383  36.465 236.579  1.00  0.00     0.036 A 
ATOM      6  C18 UNK     1       2.559  35.830 236.762  1.00  0.00     0.042 A 
ATOM      7  I2  UNK     1       3.759  37.046 237.879  1.00  0.00    -0.042 I 
ATOM      8  C19 UNK     1       2.716  34.559 236.224  1.00  0.00     0.101 A 
ENDROOT
BRANCH   1   9
ATOM      9  C13 UNK     1      -0.777  36.660 235.773  1.00  0.00     0.195 C 
ATOM     10  O2  UNK     1      -0.940  37.742 236.336  1.00  0.00    -0.287 OA
BRANCH   9  11
ATOM     11  C12 UNK     1      -1.777  35.984 235.274  1.00  0.00     0.058 A 
ATOM     12  C5  UNK     1      -2.651  35.220 235.911  1.00  0.00     0.069 A 
ATOM     13  O1  UNK     1      -3.451  34.754 235.029  1.00  0.00    -0.313 OA
ATOM     14  C6  UNK     1      -3.088  35.270 233.833  1.00  0.00     0.087 A 
ATOM     15  C7  UNK     1      -3.576  35.148 232.628  1.00  0.00     0.038 A 
ATOM     16  C11 UNK     1      -2.058  36.035 233.999  1.00  0.00     0.014 A 
ATOM     17  C8  UNK     1      -3.017  35.781 231.550  1.00  0.00     0.003 A 
ATOM     18  C9  UNK     1      -1.928  36.589 231.713  1.00  0.00     0.001 A 
ATOM     19  C10 UNK     1      -1.472  36.689 233.005  1.00  0.00     0.015 A 
BRANCH  12  20
ATOM     20  C4  UNK     1      -2.627  34.893 237.420  1.00  0.00     0.066 C 
BRANCH  20  21
ATOM     21  C3  UNK     1      -1.839  33.647 237.831  1.00  0.00     0.006 C 
BRANCH  21  22
ATOM     22  C2  UNK     1      -2.628  32.390 237.436  1.00  0.00    -0.004 C 
ATOM     23  C1  UNK     1      -1.932  31.669 236.285  1.00  0.00     0.005 C 
ENDBRANCH  21  22
ENDBRANCH  20  21
ENDBRANCH  12  20
ENDBRANCH   9  11
ENDBRANCH   1   9
BRANCH   8  24
ATOM     24  O3  UNK     1       3.842  33.850 236.387  1.00  0.00    -0.347 OA
BRANCH  24  25
ATOM     25  C20 UNK     1       4.219  33.341 237.656  1.00  0.00     0.206 C 
BRANCH  25  26
ATOM     26  C21 UNK     1       4.470  31.876 237.352  1.00  0.00     0.299 C 
BRANCH  26  27
ATOM     27  N1  UNK     1       3.530  30.986 238.022  1.00  0.00     0.089 N 
BRANCH  27  28
ATOM     28  C22 UNK     1       2.627  31.666 238.987  1.00  0.00     0.268 C 
ATOM     29  C23 UNK     1       1.140  31.666 238.579  1.00  0.00     0.037 C 
ENDBRANCH  27  28
BRANCH  27  30
ATOM     30  C24 UNK     1       4.251  29.846 238.614  1.00  0.00     0.268 C 
ATOM     31  C25 UNK     1       5.734  30.120 238.880  1.00  0.00     0.037 C 
ENDBRANCH  27  30
ENDBRANCH  26  27
ENDBRANCH  25  26
ENDBRANCH  24  25
ENDBRANCH   8  24
TORSDOF 11
ENDMDL
MODEL 9
REMARK VINA RESULT:      -5.3      3.303      7.504
REMARK  11 active torsions:
REMARK  status: ('A' for Active; 'I' for Inactive)
REMARK    1  A    between atoms: C2_2  and  C3_3 
REMARK    2  A    between atoms: C3_3  and  C4_4 
REMARK    3  A    between atoms: C4_4  and  C5_5 
REMARK    4  A    between atoms: C12_13  and  C13_14 
REMARK    5  A    between atoms: C13_14  and  C14_16 
REMARK    6  A    between atoms: C19_23  and  O3_24 
REMARK    7  A    between atoms: O3_24  and  C20_25 
REMARK    8  A    between atoms: C20_25  and  C21_26 
REMARK    9  A    between atoms: C21_26  and  N1_27 
REMARK   10  A    between atoms: N1_27  and  C22_28 
REMARK   11  A    between atoms: N1_27  and  C24_30 
ROOT
ATOM      1  C14 UNK     1       0.574  35.092 233.680  1.00  0.00     0.018 A 
ATOM      2  C15 UNK     1       1.094  33.819 233.769  1.00  0.00     0.036 A 
ATOM      3  C16 UNK     1       1.904  33.484 234.834  1.00  0.00     0.042 A 
ATOM      4  I1  UNK     1       2.634  31.541 234.844  1.00  0.00    -0.042 I 
ATOM      5  C17 UNK     1       0.841  35.997 234.649  1.00  0.00     0.036 A 
ATOM      6  C18 UNK     1       1.634  35.719 235.704  1.00  0.00     0.042 A 
ATOM      7  I2  UNK     1       1.732  37.391 236.870  1.00  0.00    -0.042 I 
ATOM      8  C19 UNK     1       2.172  34.443 235.811  1.00  0.00     0.101 A 
ENDROOT
BRANCH   1   9
ATOM      9  C13 UNK     1      -0.255  35.492 232.675  1.00  0.00     0.195 C 
ATOM     10  O2  UNK     1      -0.865  36.561 232.679  1.00  0.00    -0.287 OA
BRANCH   9  11
ATOM     11  C12 UNK     1      -0.568  34.522 231.858  1.00  0.00     0.058 A 
ATOM     12  C5  UNK     1      -1.560  33.650 231.960  1.00  0.00     0.069 A 
ATOM     13  O1  UNK     1      -1.488  32.883 230.940  1.00  0.00    -0.313 OA
ATOM     14  C6  UNK     1      -0.459  33.313 230.176  1.00  0.00     0.087 A 
ATOM     15  C7  UNK     1       0.025  32.912 229.031  1.00  0.00     0.038 A 
ATOM     16  C11 UNK     1       0.095  34.331 230.749  1.00  0.00     0.014 A 
ATOM     17  C8  UNK     1       1.104  33.520 228.445  1.00  0.00     0.003 A 
ATOM     18  C9  UNK     1       1.698  34.595 229.043  1.00  0.00     0.001 A 
ATOM     19  C10 UNK     1       1.134  34.977 230.235  1.00  0.00     0.015 A 
BRANCH  12  20
ATOM     20  C4  UNK     1      -2.542  33.541 233.147  1.00  0.00     0.066 C 
BRANCH  20  21
ATOM     21  C3  UNK     1      -2.140  32.589 234.276  1.00  0.00     0.006 C 
BRANCH  21  22
ATOM     22  C2  UNK     1      -2.272  33.312 235.624  1.00  0.00    -0.004 C 
ATOM     23  C1  UNK     1      -2.693  34.763 235.408  1.00  0.00     0.005 C 
ENDBRANCH  21  22
ENDBRANCH  20  21
ENDBRANCH  12  20
ENDBRANCH   9  11
ENDBRANCH   1   9
BRANCH   8  24
ATOM     24  O3  UNK     1       2.943  34.078 236.843  1.00  0.00    -0.347 OA
BRANCH  24  25
ATOM     25  C20 UNK     1       2.381  33.686 238.085  1.00  0.00     0.206 C 
BRANCH  25  26
ATOM     26  C21 UNK     1       3.276  34.400 239.082  1.00  0.00     0.299 C 
BRANCH  26  27
ATOM     27  N1  UNK     1       4.530  33.699 239.326  1.00  0.00     0.089 N 
BRANCH  27  28
ATOM     28  C22 UNK     1       4.423  32.218 239.269  1.00  0.00     0.268 C 
ATOM     29  C23 UNK     1       5.407  31.544 238.292  1.00  0.00     0.037 C 
ENDBRANCH  27  28
BRANCH  27  30
ATOM     30  C24 UNK     1       5.141  34.184 240.577  1.00  0.00     0.268 C 
ATOM     31  C25 UNK     1       5.556  35.657 240.536  1.00  0.00     0.037 C 
ENDBRANCH  27  30
ENDBRANCH  26  27
ENDBRANCH  25  26
ENDBRANCH  24  25
ENDBRANCH   8  24
TORSDOF 11
ENDMDL
