MODEL 1
REMARK VINA RESULT:      -7.2      0.000      0.000
REMARK  6 active torsions:
REMARK  status: ('A' for Active; 'I' for Inactive)
REMARK    1  A    between atoms: C11_9  and  C3_3 
REMARK    2  A    between atoms: C11_9  and  C12_10 
REMARK    3  A    between atoms: C12_10  and  N20_14 
REMARK    4  A    between atoms: C12_10  and  C15_11 
REMARK    5  A    between atoms: C15_11  and  C16_12 
REMARK       I    between atoms: C16_12  and  N19_13 
REMARK    6  A    between atoms: C39_24  and  C42_29 
ROOT
HETATM    1  C16 715  1090       0.626  35.425 235.699  1.00 20.00     0.202 C 
HETATM    2  N19 715  1090       2.049  35.329 235.884  1.00 20.00    -0.245 NA
HETATM    3  O22 715  1090       0.020  36.490 235.475  1.00 20.00    -0.280 OA
HETATM    4  C25 715  1090       2.315  34.277 236.895  1.00 20.00     0.119 C 
HETATM    5  C26 715  1090       2.794  34.735 238.258  1.00 20.00     0.147 C 
HETATM    6  N27 715  1090       3.729  35.896 238.179  1.00 20.00    -0.315 N 
HETATM    7  C28 715  1090       3.723  36.867 237.217  1.00 20.00     0.113 A 
HETATM    8  C29 715  1090       2.650  36.748 236.114  1.00 20.00     0.176 C 
HETATM    9  C39 715  1090       4.741  36.281 238.979  1.00 20.00     0.209 A 
HETATM   10  N40 715  1090       5.291  37.409 238.492  1.00 20.00    -0.280 N 
ATOM     11  H40 715  1090       6.078  37.907 238.907  1.00  0.00     0.188 HD
HETATM   12  N41 715  1090       4.682  37.756 237.443  1.00 20.00    -0.286 N 
ATOM     13  H41 715  1090       4.890  38.574 236.870  1.00  0.00     0.188 HD
ENDROOT
BRANCH   1  14
HETATM   14  C15 715  1090      -0.192  34.061 235.717  1.00 20.00     0.129 C 
BRANCH  14  15
HETATM   15  C12 715  1090      -0.541  33.427 234.394  1.00 20.00     0.196 C 
BRANCH  15  16
HETATM   16  C11 715  1090       0.787  33.011 233.730  1.00 20.00     0.075 C 
BRANCH  16  17
HETATM   17  C3  715  1090       0.797  33.271 232.255  1.00 20.00    -0.015 A 
HETATM   18  C2  715  1090       1.237  34.565 231.790  1.00 20.00     0.125 A 
HETATM   19  C1  715  1090       1.290  34.909 230.406  1.00 20.00     0.088 A 
HETATM   20  F10 715  1090       1.602  35.485 232.671  1.00 20.00    -0.205 F 
HETATM   21  C6  715  1090       0.898  33.920 229.468  1.00 20.00     0.157 A 
HETATM   22  C5  715  1090       0.457  32.639 229.891  1.00 20.00     0.155 A 
HETATM   23  F46 715  1090       0.940  34.210 228.199  1.00 20.00    -0.203 F 
HETATM   24  C4  715  1090       0.405  32.292 231.280  1.00 20.00     0.055 A 
HETATM   25  F9  715  1090       0.105  31.746 229.002  1.00 20.00    -0.203 F 
ENDBRANCH  16  17
ENDBRANCH  15  16
BRANCH  15  26
HETATM   26  N20 715  1090      -1.367  32.238 234.608  1.00 20.00    -0.074 N 
ATOM     27 3H20 715  1090      -0.953  31.597 235.285  1.00  0.00     0.274 HD
ATOM     28 2H20 715  1090      -2.225  32.451 235.117  1.00  0.00     0.274 HD
ATOM     29 1H20 715  1090      -1.551  31.789 233.711  1.00  0.00     0.274 HD
ENDBRANCH  15  26
ENDBRANCH  14  15
ENDBRANCH   1  14
BRANCH   9  30
HETATM   30  C42 715  1090       5.224  35.575 240.250  1.00 20.00     0.450 C 
HETATM   31  F45 715  1090       6.481  35.946 240.518  1.00 20.00    -0.163 F 
HETATM   32  F44 715  1090       4.397  35.931 241.226  1.00 20.00    -0.163 F 
HETATM   33  F43 715  1090       5.173  34.288 240.037  1.00 20.00    -0.163 F 
ENDBRANCH   9  30
TORSDOF 6
ENDMDL
MODEL 2
REMARK VINA RESULT:      -7.1      3.048      8.996
REMARK  6 active torsions:
REMARK  status: ('A' for Active; 'I' for Inactive)
REMARK    1  A    between atoms: C11_9  and  C3_3 
REMARK    2  A    between atoms: C11_9  and  C12_10 
REMARK    3  A    between atoms: C12_10  and  N20_14 
REMARK    4  A    between atoms: C12_10  and  C15_11 
REMARK    5  A    between atoms: C15_11  and  C16_12 
REMARK       I    between atoms: C16_12  and  N19_13 
REMARK    6  A    between atoms: C39_24  and  C42_29 
ROOT
HETATM    1  C16 715  1090      -0.430  35.773 232.964  1.00 20.00     0.202 C 
HETATM    2  N19 715  1090      -0.358  34.782 231.923  1.00 20.00    -0.245 NA
HETATM    3  O22 715  1090      -1.321  36.640 233.044  1.00 20.00    -0.280 OA
HETATM    4  C25 715  1090       1.071  34.541 231.611  1.00 20.00     0.119 C 
HETATM    5  C26 715  1090       1.588  35.069 230.288  1.00 20.00     0.147 C 
HETATM    6  N27 715  1090       0.588  34.938 229.187  1.00 20.00    -0.315 N 
HETATM    7  C28 715  1090      -0.771  34.974 229.327  1.00 20.00     0.113 A 
HETATM    8  C29 715  1090      -1.317  35.168 230.758  1.00 20.00     0.176 C 
HETATM    9  C39 715  1090       0.742  34.778 227.859  1.00 20.00     0.209 A 
HETATM   10  N40 715  1090      -0.469  34.715 227.274  1.00 20.00    -0.280 N 
ATOM     11  H40 715  1090      -0.635  34.592 226.275  1.00  0.00     0.188 HD
HETATM   12  N41 715  1090      -1.368  34.833 228.151  1.00 20.00    -0.286 N 
ATOM     13  H41 715  1090      -2.374  34.822 227.986  1.00  0.00     0.188 HD
ENDROOT
BRANCH   1  14
HETATM   14  C15 715  1090       0.671  35.689 234.109  1.00 20.00     0.129 C 
BRANCH  14  15
HETATM   15  C12 715  1090       0.376  34.827 235.312  1.00 20.00     0.196 C 
BRANCH  15  16
HETATM   16  C11 715  1090       0.344  35.761 236.538  1.00 20.00     0.075 C 
BRANCH  16  17
HETATM   17  C3  715  1090       1.708  36.007 237.106  1.00 20.00    -0.015 A 
HETATM   18  C2  715  1090       2.292  37.317 236.944  1.00 20.00     0.125 A 
HETATM   19  C1  715  1090       3.581  37.655 237.454  1.00 20.00     0.088 A 
HETATM   20  F10 715  1090       1.621  38.254 236.288  1.00 20.00    -0.205 F 
HETATM   21  C6  715  1090       4.295  36.649 238.154  1.00 20.00     0.157 A 
HETATM   22  C5  715  1090       3.751  35.349 238.330  1.00 20.00     0.155 A 
HETATM   23  F46 715  1090       5.473  36.934 238.632  1.00 20.00    -0.203 F 
HETATM   24  C4  715  1090       2.456  35.010 237.819  1.00 20.00     0.055 A 
HETATM   25  F9  715  1090       4.431  34.442 238.983  1.00 20.00    -0.203 F 
ENDBRANCH  16  17
ENDBRANCH  15  16
BRANCH  15  26
HETATM   26  N20 715  1090      -0.929  34.184 235.160  1.00 20.00    -0.074 N 
ATOM     27 3H20 715  1090      -1.144  33.971 234.185  1.00  0.00     0.274 HD
ATOM     28 2H20 715  1090      -0.935  33.230 235.521  1.00  0.00     0.274 HD
ATOM     29 1H20 715  1090      -1.645  34.766 235.596  1.00  0.00     0.274 HD
ENDBRANCH  15  26
ENDBRANCH  14  15
ENDBRANCH   1  14
BRANCH   9  30
HETATM   30  C42 715  1090       2.066  34.676 227.095  1.00 20.00     0.450 C 
HETATM   31  F45 715  1090       2.734  33.589 227.500  1.00 20.00    -0.163 F 
HETATM   32  F44 715  1090       1.762  34.604 225.805  1.00 20.00    -0.163 F 
HETATM   33  F43 715  1090       2.762  35.750 227.355  1.00 20.00    -0.163 F 
ENDBRANCH   9  30
TORSDOF 6
ENDMDL
MODEL 3
REMARK VINA RESULT:      -7.0      4.439      6.229
REMARK  6 active torsions:
REMARK  status: ('A' for Active; 'I' for Inactive)
REMARK    1  A    between atoms: C11_9  and  C3_3 
REMARK    2  A    between atoms: C11_9  and  C12_10 
REMARK    3  A    between atoms: C12_10  and  N20_14 
REMARK    4  A    between atoms: C12_10  and  C15_11 
REMARK    5  A    between atoms: C15_11  and  C16_12 
REMARK       I    between atoms: C16_12  and  N19_13 
REMARK    6  A    between atoms: C39_24  and  C42_29 
ROOT
HETATM    1  C16 715  1090       0.572  34.663 236.020  1.00 20.00     0.202 C 
HETATM    2  N19 715  1090       1.999  34.629 236.202  1.00 20.00    -0.245 NA
HETATM    3  O22 715  1090      -0.057  35.654 235.603  1.00 20.00    -0.280 OA
HETATM    4  C25 715  1090       2.295  33.797 237.392  1.00 20.00     0.119 C 
HETATM    5  C26 715  1090       2.778  34.518 238.636  1.00 20.00     0.147 C 
HETATM    6  N27 715  1090       3.689  35.658 238.321  1.00 20.00    -0.315 N 
HETATM    7  C28 715  1090       3.655  36.425 237.190  1.00 20.00     0.113 A 
HETATM    8  C29 715  1090       2.574  36.076 236.146  1.00 20.00     0.176 C 
HETATM    9  C39 715  1090       4.701  36.208 239.018  1.00 20.00     0.209 A 
HETATM   10  N40 715  1090       5.224  37.230 238.316  1.00 20.00    -0.280 N 
ATOM     11  H40 715  1090       6.005  37.812 238.616  1.00  0.00     0.188 HD
HETATM   12  N41 715  1090       4.599  37.357 237.227  1.00 20.00    -0.286 N 
ATOM     13  H41 715  1090       4.785  38.052 236.505  1.00  0.00     0.188 HD
ENDROOT
BRANCH   1  14
HETATM   14  C15 715  1090      -0.219  33.314 236.312  1.00 20.00     0.129 C 
BRANCH  14  15
HETATM   15  C12 715  1090      -1.535  33.409 237.043  1.00 20.00     0.196 C 
BRANCH  15  16
HETATM   16  C11 715  1090      -1.399  32.563 238.325  1.00 20.00     0.075 C 
BRANCH  16  17
HETATM   17  C3  715  1090      -2.709  31.991 238.775  1.00 20.00    -0.015 A 
HETATM   18  C2  715  1090      -3.002  31.979 240.188  1.00 20.00     0.125 A 
HETATM   19  C1  715  1090      -4.223  31.465 240.718  1.00 20.00     0.088 A 
HETATM   20  F10 715  1090      -2.108  32.454 241.044  1.00 20.00    -0.205 F 
HETATM   21  C6  715  1090      -5.176  30.957 239.797  1.00 20.00     0.157 A 
HETATM   22  C5  715  1090      -4.918  30.952 238.401  1.00 20.00     0.155 A 
HETATM   23  F46 715  1090      -6.299  30.484 240.256  1.00 20.00    -0.203 F 
HETATM   24  C4  715  1090      -3.693  31.470 237.869  1.00 20.00     0.055 A 
HETATM   25  F9  715  1090      -5.818  30.480 237.576  1.00 20.00    -0.203 F 
ENDBRANCH  16  17
ENDBRANCH  15  16
BRANCH  15  26
HETATM   26  N20 715  1090      -1.806  34.800 237.409  1.00 20.00    -0.074 N 
ATOM     27 3H20 715  1090      -2.010  34.906 238.403  1.00  0.00     0.274 HD
ATOM     28 2H20 715  1090      -0.968  35.380 237.371  1.00  0.00     0.274 HD
ATOM     29 1H20 715  1090      -2.554  35.164 236.819  1.00  0.00     0.274 HD
ENDBRANCH  15  26
ENDBRANCH  14  15
ENDBRANCH   1  14
BRANCH   9  30
HETATM   30  C42 715  1090       5.210  35.769 240.396  1.00 20.00     0.450 C 
HETATM   31  F45 715  1090       6.489  36.135 240.538  1.00 20.00    -0.163 F 
HETATM   32  F44 715  1090       4.435  36.359 241.298  1.00 20.00    -0.163 F 
HETATM   33  F43 715  1090       5.106  34.469 240.465  1.00 20.00    -0.163 F 
ENDBRANCH   9  30
TORSDOF 6
ENDMDL
MODEL 4
REMARK VINA RESULT:      -7.0      2.499      8.582
REMARK  6 active torsions:
REMARK  status: ('A' for Active; 'I' for Inactive)
REMARK    1  A    between atoms: C11_9  and  C3_3 
REMARK    2  A    between atoms: C11_9  and  C12_10 
REMARK    3  A    between atoms: C12_10  and  N20_14 
REMARK    4  A    between atoms: C12_10  and  C15_11 
REMARK    5  A    between atoms: C15_11  and  C16_12 
REMARK       I    between atoms: C16_12  and  N19_13 
REMARK    6  A    between atoms: C39_24  and  C42_29 
ROOT
HETATM    1  C16 715  1090      -0.957  36.396 235.576  1.00 20.00     0.202 C 
HETATM    2  N19 715  1090      -1.232  35.461 234.517  1.00 20.00    -0.245 NA
HETATM    3  O22 715  1090      -1.482  37.522 235.668  1.00 20.00    -0.280 OA
HETATM    4  C25 715  1090       0.021  34.732 234.207  1.00 20.00     0.119 C 
HETATM    5  C26 715  1090       0.707  35.063 232.896  1.00 20.00     0.147 C 
HETATM    6  N27 715  1090      -0.262  35.314 231.788  1.00 20.00    -0.315 N 
HETATM    7  C28 715  1090      -1.521  35.829 231.923  1.00 20.00     0.113 A 
HETATM    8  C29 715  1090      -1.978  36.182 233.355  1.00 20.00     0.176 C 
HETATM    9  C39 715  1090      -0.162  35.131 230.458  1.00 20.00     0.209 A 
HETATM   10  N40 715  1090      -1.309  35.513 229.866  1.00 20.00    -0.280 N 
ATOM     11  H40 715  1090      -1.497  35.473 228.865  1.00  0.00     0.188 HD
HETATM   12  N41 715  1090      -2.117  35.929 230.742  1.00 20.00    -0.286 N 
ATOM     13  H41 715  1090      -3.059  36.279 230.572  1.00  0.00     0.188 HD
ENDROOT
BRANCH   1  14
HETATM   14  C15 715  1090       0.029  35.907 236.724  1.00 20.00     0.129 C 
BRANCH  14  15
HETATM   15  C12 715  1090       1.244  36.751 237.020  1.00 20.00     0.196 C 
BRANCH  15  16
HETATM   16  C11 715  1090       2.480  35.899 236.670  1.00 20.00     0.075 C 
BRANCH  16  17
HETATM   17  C3  715  1090       3.419  35.750 237.828  1.00 20.00    -0.015 A 
HETATM   18  C2  715  1090       4.341  36.826 238.105  1.00 20.00     0.125 A 
HETATM   19  C1  715  1090       5.269  36.785 239.188  1.00 20.00     0.088 A 
HETATM   20  F10 715  1090       4.344  37.898 237.327  1.00 20.00    -0.205 F 
HETATM   21  C6  715  1090       5.261  35.634 240.017  1.00 20.00     0.157 A 
HETATM   22  C5  715  1090       4.369  34.557 239.771  1.00 20.00     0.155 A 
HETATM   23  F46 715  1090       6.098  35.575 241.014  1.00 20.00    -0.203 F 
HETATM   24  C4  715  1090       3.436  34.598 238.685  1.00 20.00     0.055 A 
HETATM   25  F9  715  1090       4.383  33.510 240.556  1.00 20.00    -0.203 F 
ENDBRANCH  16  17
ENDBRANCH  15  16
BRANCH  15  26
HETATM   26  N20 715  1090       1.234  37.954 236.186  1.00 20.00    -0.074 N 
ATOM     27 3H20 715  1090       0.790  38.745 236.653  1.00  0.00     0.274 HD
ATOM     28 2H20 715  1090       2.165  38.355 236.076  1.00  0.00     0.274 HD
ATOM     29 1H20 715  1090       0.798  37.738 235.289  1.00  0.00     0.274 HD
ENDBRANCH  15  26
ENDBRANCH  14  15
ENDBRANCH   1  14
BRANCH   9  30
HETATM   30  C42 715  1090       1.048  34.577 229.698  1.00 20.00     0.450 C 
HETATM   31  F45 715  1090       2.139  35.284 230.017  1.00 20.00    -0.163 F 
HETATM   32  F44 715  1090       1.176  33.304 230.053  1.00 20.00    -0.163 F 
HETATM   33  F43 715  1090       0.803  34.686 228.420  1.00 20.00    -0.163 F 
ENDBRANCH   9  30
TORSDOF 6
ENDMDL
MODEL 5
REMARK VINA RESULT:      -6.9      2.733      4.198
REMARK  6 active torsions:
REMARK  status: ('A' for Active; 'I' for Inactive)
REMARK    1  A    between atoms: C11_9  and  C3_3 
REMARK    2  A    between atoms: C11_9  and  C12_10 
REMARK    3  A    between atoms: C12_10  and  N20_14 
REMARK    4  A    between atoms: C12_10  and  C15_11 
REMARK    5  A    between atoms: C15_11  and  C16_12 
REMARK       I    between atoms: C16_12  and  N19_13 
REMARK    6  A    between atoms: C39_24  and  C42_29 
ROOT
HETATM    1  C16 715  1090       0.781  34.608 235.909  1.00 20.00     0.202 C 
HETATM    2  N19 715  1090       2.206  34.651 236.106  1.00 20.00    -0.245 NA
HETATM    3  O22 715  1090       0.096  35.580 235.539  1.00 20.00    -0.280 OA
HETATM    4  C25 715  1090       2.541  33.774 237.253  1.00 20.00     0.119 C 
HETATM    5  C26 715  1090       2.967  34.452 238.540  1.00 20.00     0.147 C 
HETATM    6  N27 715  1090       3.809  35.662 238.301  1.00 20.00    -0.315 N 
HETATM    7  C28 715  1090       3.738  36.487 237.213  1.00 20.00     0.113 A 
HETATM    8  C29 715  1090       2.691  36.131 236.137  1.00 20.00     0.176 C 
HETATM    9  C39 715  1090       4.778  36.233 239.040  1.00 20.00     0.209 A 
HETATM   10  N40 715  1090       5.244  37.323 238.401  1.00 20.00    -0.280 N 
ATOM     11  H40 715  1090       5.984  37.935 238.743  1.00  0.00     0.188 HD
HETATM   12  N41 715  1090       4.622  37.472 237.314  1.00 20.00    -0.286 N 
ATOM     13  H41 715  1090       4.771  38.216 236.633  1.00  0.00     0.188 HD
ENDROOT
BRANCH   1  14
HETATM   14  C15 715  1090       0.073  33.198 236.117  1.00 20.00     0.129 C 
BRANCH  14  15
HETATM   15  C12 715  1090      -0.302  32.407 234.888  1.00 20.00     0.196 C 
BRANCH  15  16
HETATM   16  C11 715  1090       0.070  30.937 235.169  1.00 20.00     0.075 C 
BRANCH  16  17
HETATM   17  C3  715  1090       1.518  30.769 235.513  1.00 20.00    -0.015 A 
HETATM   18  C2  715  1090       2.506  31.179 234.543  1.00 20.00     0.125 A 
HETATM   19  C1  715  1090       3.909  31.067 234.777  1.00 20.00     0.088 A 
HETATM   20  F10 715  1090       2.110  31.672 233.379  1.00 20.00    -0.205 F 
HETATM   21  C6  715  1090       4.326  30.537 236.025  1.00 20.00     0.157 A 
HETATM   22  C5  715  1090       3.381  30.123 237.001  1.00 20.00     0.155 A 
HETATM   23  F46 715  1090       5.602  30.428 236.264  1.00 20.00    -0.203 F 
HETATM   24  C4  715  1090       1.973  30.236 236.767  1.00 20.00     0.055 A 
HETATM   25  F9  715  1090       3.797  29.641 238.144  1.00 20.00    -0.203 F 
ENDBRANCH  16  17
ENDBRANCH  15  16
BRANCH  15  26
HETATM   26  N20 715  1090      -1.742  32.504 234.649  1.00 20.00    -0.074 N 
ATOM     27 3H20 715  1090      -1.975  32.443 233.657  1.00  0.00     0.274 HD
ATOM     28 2H20 715  1090      -2.243  31.674 234.966  1.00  0.00     0.274 HD
ATOM     29 1H20 715  1090      -2.098  33.358 235.078  1.00  0.00     0.274 HD
ENDBRANCH  15  26
ENDBRANCH  14  15
ENDBRANCH   1  14
BRANCH   9  30
HETATM   30  C42 715  1090       5.301  35.751 240.397  1.00 20.00     0.450 C 
HETATM   31  F45 715  1090       5.214  34.417 240.461  1.00 20.00    -0.163 F 
HETATM   32  F44 715  1090       6.560  36.159 240.492  1.00 20.00    -0.163 F 
HETATM   33  F43 715  1090       4.560  36.292 241.327  1.00 20.00    -0.163 F 
ENDBRANCH   9  30
TORSDOF 6
ENDMDL
MODEL 6
REMARK VINA RESULT:      -6.9      2.734      4.112
REMARK  6 active torsions:
REMARK  status: ('A' for Active; 'I' for Inactive)
REMARK    1  A    between atoms: C11_9  and  C3_3 
REMARK    2  A    between atoms: C11_9  and  C12_10 
REMARK    3  A    between atoms: C12_10  and  N20_14 
REMARK    4  A    between atoms: C12_10  and  C15_11 
REMARK    5  A    between atoms: C15_11  and  C16_12 
REMARK       I    between atoms: C16_12  and  N19_13 
REMARK    6  A    between atoms: C39_24  and  C42_29 
ROOT
HETATM    1  C16 715  1090       0.040  34.732 233.087  1.00 20.00     0.202 C 
HETATM    2  N19 715  1090       0.497  35.974 233.651  1.00 20.00    -0.245 NA
HETATM    3  O22 715  1090      -1.041  34.186 233.381  1.00 20.00    -0.280 OA
HETATM    4  C25 715  1090       1.970  35.900 233.801  1.00 20.00     0.119 C 
HETATM    5  C26 715  1090       2.516  35.776 235.209  1.00 20.00     0.147 C 
HETATM    6  N27 715  1090       1.740  36.582 236.199  1.00 20.00    -0.315 N 
HETATM    7  C28 715  1090       0.408  36.882 236.123  1.00 20.00     0.113 A 
HETATM    8  C29 715  1090      -0.359  36.334 234.902  1.00 20.00     0.176 C 
HETATM    9  C39 715  1090       2.109  37.173 237.351  1.00 20.00     0.209 A 
HETATM   10  N40 715  1090       1.043  37.786 237.900  1.00 20.00    -0.280 N 
ATOM     11  H40 715  1090       1.052  38.311 238.774  1.00  0.00     0.188 HD
HETATM   12  N41 715  1090       0.032  37.611 237.166  1.00 20.00    -0.286 N 
ATOM     13  H41 715  1090      -0.908  37.965 237.343  1.00  0.00     0.188 HD
ENDROOT
BRANCH   1  14
HETATM   14  C15 715  1090       0.960  34.072 231.969  1.00 20.00     0.129 C 
BRANCH  14  15
HETATM   15  C12 715  1090       0.800  34.551 230.548  1.00 20.00     0.196 C 
BRANCH  15  16
HETATM   16  C11 715  1090       0.436  33.319 229.696  1.00 20.00     0.075 C 
BRANCH  16  17
HETATM   17  C3  715  1090       1.007  33.391 228.313  1.00 20.00    -0.015 A 
HETATM   18  C2  715  1090       1.265  32.155 227.612  1.00 20.00     0.125 A 
HETATM   19  C1  715  1090       1.799  32.115 226.290  1.00 20.00     0.088 A 
HETATM   20  F10 715  1090       1.009  31.001 228.211  1.00 20.00    -0.205 F 
HETATM   21  C6  715  1090       2.072  33.354 225.655  1.00 20.00     0.157 A 
HETATM   22  C5  715  1090       1.832  34.588 226.315  1.00 20.00     0.155 A 
HETATM   23  F46 715  1090       2.558  33.344 224.446  1.00 20.00    -0.203 F 
HETATM   24  C4  715  1090       1.294  34.628 227.643  1.00 20.00     0.055 A 
HETATM   25  F9  715  1090       2.091  35.714 225.702  1.00 20.00    -0.203 F 
ENDBRANCH  16  17
ENDBRANCH  15  16
BRANCH  15  26
HETATM   26  N20 715  1090      -0.285  35.531 230.468  1.00 20.00    -0.074 N 
ATOM     27 3H20 715  1090      -0.759  35.657 231.363  1.00  0.00     0.274 HD
ATOM     28 2H20 715  1090       0.062  36.483 230.352  1.00  0.00     0.274 HD
ATOM     29 1H20 715  1090      -0.929  35.260 229.724  1.00  0.00     0.274 HD
ENDBRANCH  15  26
ENDBRANCH  14  15
ENDBRANCH   1  14
BRANCH   9  30
HETATM   30  C42 715  1090       3.509  37.172 237.974  1.00 20.00     0.450 C 
HETATM   31  F45 715  1090       3.449  37.687 239.208  1.00 20.00    -0.163 F 
HETATM   32  F44 715  1090       3.919  35.910 237.997  1.00 20.00    -0.163 F 
HETATM   33  F43 715  1090       4.283  37.906 237.221  1.00 20.00    -0.163 F 
ENDBRANCH   9  30
TORSDOF 6
ENDMDL
MODEL 7
REMARK VINA RESULT:      -6.9      6.043     10.677
REMARK  6 active torsions:
REMARK  status: ('A' for Active; 'I' for Inactive)
REMARK    1  A    between atoms: C11_9  and  C3_3 
REMARK    2  A    between atoms: C11_9  and  C12_10 
REMARK    3  A    between atoms: C12_10  and  N20_14 
REMARK    4  A    between atoms: C12_10  and  C15_11 
REMARK    5  A    between atoms: C15_11  and  C16_12 
REMARK       I    between atoms: C16_12  and  N19_13 
REMARK    6  A    between atoms: C39_24  and  C42_29 
ROOT
HETATM    1  C16 715  1090      -2.450  36.715 230.794  1.00 20.00     0.202 C 
HETATM    2  N19 715  1090      -2.270  36.810 229.369  1.00 20.00    -0.245 NA
HETATM    3  O22 715  1090      -3.549  36.522 231.349  1.00 20.00    -0.280 OA
HETATM    4  C25 715  1090      -1.209  37.810 229.102  1.00 20.00     0.119 C 
HETATM    5  C26 715  1090      -1.642  39.137 228.511  1.00 20.00     0.147 C 
HETATM    6  N27 715  1090      -2.746  38.990 227.516  1.00 20.00    -0.315 N 
HETATM    7  C28 715  1090      -3.712  38.023 227.526  1.00 20.00     0.113 A 
HETATM    8  C29 715  1090      -3.652  36.991 228.673  1.00 20.00     0.176 C 
HETATM    9  C39 715  1090      -3.073  39.721 226.434  1.00 20.00     0.209 A 
HETATM   10  N40 715  1090      -4.165  39.192 225.852  1.00 20.00    -0.280 N 
ATOM     11  H40 715  1090      -4.617  39.552 225.012  1.00  0.00     0.188 HD
HETATM   12  N41 715  1090      -4.544  38.181 226.504  1.00 20.00    -0.286 N 
ATOM     13  H41 715  1090      -5.346  37.590 226.286  1.00  0.00     0.188 HD
ENDROOT
BRANCH   1  14
HETATM   14  C15 715  1090      -1.137  36.795 231.688  1.00 20.00     0.129 C 
BRANCH  14  15
HETATM   15  C12 715  1090      -0.333  35.533 231.878  1.00 20.00     0.196 C 
BRANCH  15  16
HETATM   16  C11 715  1090      -0.764  34.925 233.228  1.00 20.00     0.075 C 
BRANCH  16  17
HETATM   17  C3  715  1090      -0.399  35.797 234.390  1.00 20.00    -0.015 A 
HETATM   18  C2  715  1090      -1.436  36.156 235.329  1.00 20.00     0.125 A 
HETATM   19  C1  715  1090      -1.191  36.974 236.472  1.00 20.00     0.088 A 
HETATM   20  F10 715  1090      -2.673  35.724 235.130  1.00 20.00    -0.205 F 
HETATM   21  C6  715  1090       0.135  37.434 236.678  1.00 20.00     0.157 A 
HETATM   22  C5  715  1090       1.178  37.101 235.774  1.00 20.00     0.155 A 
HETATM   23  F46 715  1090       0.384  38.180 237.717  1.00 20.00    -0.203 F 
HETATM   24  C4  715  1090       0.932  36.278 234.627  1.00 20.00     0.055 A 
HETATM   25  F9  715  1090       2.392  37.537 235.993  1.00 20.00    -0.203 F 
ENDBRANCH  16  17
ENDBRANCH  15  16
BRANCH  15  26
HETATM   26  N20 715  1090      -0.628  34.584 230.804  1.00 20.00    -0.074 N 
ATOM     27 3H20 715  1090      -1.631  34.447 230.673  1.00  0.00     0.274 HD
ATOM     28 2H20 715  1090      -0.412  34.963 229.883  1.00  0.00     0.274 HD
ATOM     29 1H20 715  1090      -0.138  33.707 230.986  1.00  0.00     0.274 HD
ENDBRANCH  15  26
ENDBRANCH  14  15
ENDBRANCH   1  14
BRANCH   9  30
HETATM   30  C42 715  1090      -2.345  40.964 225.914  1.00 20.00     0.450 C 
HETATM   31  F45 715  1090      -1.909  41.693 226.948  1.00 20.00    -0.163 F 
HETATM   32  F44 715  1090      -1.335  40.534 225.166  1.00 20.00    -0.163 F 
HETATM   33  F43 715  1090      -3.193  41.658 225.205  1.00 20.00    -0.163 F 
ENDBRANCH   9  30
TORSDOF 6
ENDMDL
MODEL 8
REMARK VINA RESULT:      -6.8      2.452      3.177
REMARK  6 active torsions:
REMARK  status: ('A' for Active; 'I' for Inactive)
REMARK    1  A    between atoms: C11_9  and  C3_3 
REMARK    2  A    between atoms: C11_9  and  C12_10 
REMARK    3  A    between atoms: C12_10  and  N20_14 
REMARK    4  A    between atoms: C12_10  and  C15_11 
REMARK    5  A    between atoms: C15_11  and  C16_12 
REMARK       I    between atoms: C16_12  and  N19_13 
REMARK    6  A    between atoms: C39_24  and  C42_29 
ROOT
HETATM    1  C16 715  1090       0.374  35.203 236.547  1.00 20.00     0.202 C 
HETATM    2  N19 715  1090       1.807  35.084 236.522  1.00 20.00    -0.245 NA
HETATM    3  O22 715  1090      -0.245  36.258 236.307  1.00 20.00    -0.280 OA
HETATM    4  C25 715  1090       2.212  34.135 237.585  1.00 20.00     0.119 C 
HETATM    5  C26 715  1090       2.903  34.715 238.804  1.00 20.00     0.147 C 
HETATM    6  N27 715  1090       3.830  35.834 238.460  1.00 20.00    -0.315 N 
HETATM    7  C28 715  1090       3.689  36.701 237.412  1.00 20.00     0.113 A 
HETATM    8  C29 715  1090       2.456  36.501 236.505  1.00 20.00     0.176 C 
HETATM    9  C39 715  1090       4.959  36.269 239.050  1.00 20.00     0.209 A 
HETATM   10  N40 715  1090       5.442  37.324 238.368  1.00 20.00    -0.280 N 
ATOM     11  H40 715  1090       6.291  37.838 238.602  1.00  0.00     0.188 HD
HETATM   12  N41 715  1090       4.683  37.579 237.393  1.00 20.00    -0.286 N 
ATOM     13  H41 715  1090       4.810  38.327 236.712  1.00  0.00     0.188 HD
ENDROOT
BRANCH   1  14
HETATM   14  C15 715  1090      -0.450  33.873 236.835  1.00 20.00     0.129 C 
BRANCH  14  15
HETATM   15  C12 715  1090      -1.922  33.867 236.505  1.00 20.00     0.196 C 
BRANCH  15  16
HETATM   16  C11 715  1090      -2.073  33.171 235.138  1.00 20.00     0.075 C 
BRANCH  16  17
HETATM   17  C3  715  1090      -2.313  34.143 234.024  1.00 20.00    -0.015 A 
HETATM   18  C2  715  1090      -3.675  34.509 233.714  1.00 20.00     0.125 A 
HETATM   19  C1  715  1090      -4.009  35.431 232.679  1.00 20.00     0.088 A 
HETATM   20  F10 715  1090      -4.668  33.968 234.406  1.00 20.00    -0.205 F 
HETATM   21  C6  715  1090      -2.942  36.006 231.942  1.00 20.00     0.157 A 
HETATM   22  C5  715  1090      -1.591  35.667 232.218  1.00 20.00     0.155 A 
HETATM   23  F46 715  1090      -3.222  36.853 230.992  1.00 20.00    -0.203 F 
HETATM   24  C4  715  1090      -1.255  34.742 233.259  1.00 20.00     0.055 A 
HETATM   25  F9  715  1090      -0.628  36.216 231.524  1.00 20.00    -0.203 F 
ENDBRANCH  16  17
ENDBRANCH  15  16
BRANCH  15  26
HETATM   26  N20 715  1090      -2.659  33.110 237.517  1.00 20.00    -0.074 N 
ATOM     27 3H20 715  1090      -3.340  32.472 237.103  1.00  0.00     0.274 HD
ATOM     28 2H20 715  1090      -2.075  32.416 237.983  1.00  0.00     0.274 HD
ATOM     29 1H20 715  1090      -3.089  33.759 238.177  1.00  0.00     0.274 HD
ENDBRANCH  15  26
ENDBRANCH  14  15
ENDBRANCH   1  14
BRANCH   9  30
HETATM   30  C42 715  1090       5.624  35.683 240.300  1.00 20.00     0.450 C 
HETATM   31  F45 715  1090       5.679  34.350 240.195  1.00 20.00    -0.163 F 
HETATM   32  F44 715  1090       6.839  36.212 240.374  1.00 20.00    -0.163 F 
HETATM   33  F43 715  1090       4.900  36.020 241.333  1.00 20.00    -0.163 F 
ENDBRANCH   9  30
TORSDOF 6
ENDMDL
MODEL 9
REMARK VINA RESULT:      -6.8      3.282      4.908
REMARK  6 active torsions:
REMARK  status: ('A' for Active; 'I' for Inactive)
REMARK    1  A    between atoms: C11_9  and  C3_3 
REMARK    2  A    between atoms: C11_9  and  C12_10 
REMARK    3  A    between atoms: C12_10  and  N20_14 
REMARK    4  A    between atoms: C12_10  and  C15_11 
REMARK    5  A    between atoms: C15_11  and  C16_12 
REMARK       I    between atoms: C16_12  and  N19_13 
REMARK    6  A    between atoms: C39_24  and  C42_29 
ROOT
HETATM    1  C16 715  1090      -1.927  33.975 232.674  1.00 20.00     0.202 C 
HETATM    2  N19 715  1090      -1.927  34.276 234.080  1.00 20.00    -0.245 NA
HETATM    3  O22 715  1090      -1.244  33.073 232.151  1.00 20.00    -0.280 OA
HETATM    4  C25 715  1090      -2.077  35.742 234.240  1.00 20.00     0.119 C 
HETATM    5  C26 715  1090      -0.859  36.514 234.707  1.00 20.00     0.147 C 
HETATM    6  N27 715  1090      -0.060  35.767 235.723  1.00 20.00    -0.315 N 
HETATM    7  C28 715  1090       0.052  34.408 235.816  1.00 20.00     0.113 A 
HETATM    8  C29 715  1090      -0.720  33.574 234.772  1.00 20.00     0.176 C 
HETATM    9  C39 715  1090       0.719  36.195 236.735  1.00 20.00     0.209 A 
HETATM   10  N40 715  1090       1.240  35.133 237.377  1.00 20.00    -0.280 N 
ATOM     11  H40 715  1090       1.862  35.181 238.184  1.00  0.00     0.188 HD
HETATM   12  N41 715  1090       0.841  34.070 236.828  1.00 20.00    -0.286 N 
ATOM     13  H41 715  1090       1.083  33.120 237.110  1.00  0.00     0.188 HD
ENDROOT
BRANCH   1  14
HETATM   14  C15 715  1090      -2.924  34.815 231.762  1.00 20.00     0.129 C 
BRANCH  14  15
HETATM   15  C12 715  1090      -2.333  35.841 230.827  1.00 20.00     0.196 C 
BRANCH  15  16
HETATM   16  C11 715  1090      -2.135  35.148 229.465  1.00 20.00     0.075 C 
BRANCH  16  17
HETATM   17  C3  715  1090      -0.736  35.290 228.948  1.00 20.00    -0.015 A 
HETATM   18  C2  715  1090       0.107  34.119 228.920  1.00 20.00     0.125 A 
HETATM   19  C1  715  1090       1.450  34.147 228.440  1.00 20.00     0.088 A 
HETATM   20  F10 715  1090      -0.368  32.963 229.364  1.00 20.00    -0.205 F 
HETATM   21  C6  715  1090       1.952  35.386 227.968  1.00 20.00     0.157 A 
HETATM   22  C5  715  1090       1.151  36.558 227.983  1.00 20.00     0.155 A 
HETATM   23  F46 715  1090       3.176  35.437 227.522  1.00 20.00    -0.203 F 
HETATM   24  C4  715  1090      -0.198  36.530 228.464  1.00 20.00     0.055 A 
HETATM   25  F9  715  1090       1.641  37.687 227.537  1.00 20.00    -0.203 F 
ENDBRANCH  16  17
ENDBRANCH  15  16
BRANCH  15  26
HETATM   26  N20 715  1090      -3.257  36.965 230.668  1.00 20.00    -0.074 N 
ATOM     27 3H20 715  1090      -2.964  37.785 231.201  1.00  0.00     0.274 HD
ATOM     28 2H20 715  1090      -3.210  37.375 229.735  1.00  0.00     0.274 HD
ATOM     29 1H20 715  1090      -4.201  36.663 230.910  1.00  0.00     0.274 HD
ENDBRANCH  15  26
ENDBRANCH  14  15
ENDBRANCH   1  14
BRANCH   9  30
HETATM   30  C42 715  1090       0.994  37.651 237.127  1.00 20.00     0.450 C 
HETATM   31  F45 715  1090       1.478  38.315 236.071  1.00 20.00    -0.163 F 
HETATM   32  F44 715  1090      -0.161  38.165 237.533  1.00 20.00    -0.163 F 
HETATM   33  F43 715  1090       1.872  37.646 238.093  1.00 20.00    -0.163 F 
ENDBRANCH   9  30
TORSDOF 6
ENDMDL
