MODEL 1
REMARK VINA RESULT:      -7.7      0.000      0.000
REMARK  9 active torsions:
REMARK  status: ('A' for Active; 'I' for Inactive)
REMARK    1  A    between atoms: C3_3  and  O3_4 
REMARK    2  A    between atoms: C7_9  and  C8_10 
REMARK    3  A    between atoms: C11_13  and  O11_14 
REMARK    4  A    between atoms: C15_19  and  C16_20 
REMARK    5  A    between atoms: C16_20  and  C17_22 
REMARK    6  A    between atoms: C20_25  and  O23_28 
REMARK    7  A    between atoms: C24_29  and  O23_28 
REMARK    8  A    between atoms: C24_29  and  C25_30 
REMARK    9  A    between atoms: C25_30  and  N26_31 
ROOT
HETATM    1  C1  RAL  6541      -2.118  36.125 232.702  1.00 20.00     0.016 A 
HETATM    2  C2  RAL  6541      -2.054  36.143 234.096  1.00 20.00     0.037 A 
HETATM    3  C3  RAL  6541      -0.883  35.720 234.715  1.00 20.00     0.067 A 
HETATM    4  C4  RAL  6541       0.213  35.297 233.931  1.00 20.00     0.056 A 
HETATM    5  C5  RAL  6541       0.143  35.296 232.580  1.00 20.00     0.019 A 
HETATM    6  S6  RAL  6541       1.287  34.868 231.428  1.00 20.00    -0.088 SA
HETATM    7  C7  RAL  6541       0.393  35.178 230.045  1.00 20.00     0.031 A 
HETATM    8  C14 RAL  6541      -1.051  35.712 231.929  1.00 20.00    -0.003 A 
HETATM    9  C15 RAL  6541      -0.884  35.644 230.469  1.00 20.00     0.044 A 
ENDROOT
BRANCH   9  10
HETATM   10  C16 RAL  6541      -1.881  35.965 229.551  1.00 20.00     0.194 C 
HETATM   11  O16 RAL  6541      -2.682  35.070 229.227  1.00 20.00    -0.287 OA
BRANCH  10  12
HETATM   12  C17 RAL  6541      -2.005  37.295 228.962  1.00 20.00     0.015 A 
HETATM   13  C18 RAL  6541      -2.975  37.569 228.001  1.00 20.00     0.018 A 
HETATM   14  C19 RAL  6541      -3.140  38.839 227.394  1.00 20.00     0.037 A 
HETATM   15  C20 RAL  6541      -2.259  39.825 227.805  1.00 20.00     0.068 A 
HETATM   16  C21 RAL  6541      -1.290  39.545 228.756  1.00 20.00     0.037 A 
HETATM   17  C22 RAL  6541      -1.152  38.320 229.338  1.00 20.00     0.018 A 
BRANCH  15  18
HETATM   18  O23 RAL  6541      -2.179  41.151 227.386  1.00 20.00    -0.349 OA
BRANCH  18  19
HETATM   19  C24 RAL  6541      -1.629  41.356 226.107  1.00 20.00     0.206 C 
BRANCH  19  20
HETATM   20  C25 RAL  6541      -0.375  42.187 226.340  1.00 20.00     0.299 C 
BRANCH  20  21
HETATM   21  N26 RAL  6541       0.703  41.639 227.185  1.00 20.00     0.090 N 
HETATM   22  C27 RAL  6541       1.657  42.758 227.411  1.00 20.00     0.272 C 
HETATM   23  C28 RAL  6541       2.812  42.367 228.330  1.00 20.00     0.030 C 
HETATM   24  C29 RAL  6541       3.592  41.195 227.696  1.00 20.00     0.003 C 
HETATM   25  C30 RAL  6541       2.601  40.058 227.439  1.00 20.00     0.030 C 
HETATM   26  C31 RAL  6541       1.436  40.530 226.558  1.00 20.00     0.272 C 
ENDBRANCH  20  21
ENDBRANCH  19  20
ENDBRANCH  18  19
ENDBRANCH  15  18
ENDBRANCH  10  12
ENDBRANCH   9  10
BRANCH   7  27
HETATM   27  C8  RAL  6541       0.887  34.974 228.656  1.00 20.00    -0.018 A 
HETATM   28  C13 RAL  6541       0.707  33.753 228.019  1.00 20.00     0.015 A 
HETATM   29  C12 RAL  6541       1.175  33.543 226.723  1.00 20.00     0.037 A 
HETATM   30  C11 RAL  6541       1.832  34.562 226.049  1.00 20.00     0.065 A 
HETATM   31  C10 RAL  6541       2.017  35.784 226.672  1.00 20.00     0.037 A 
HETATM   32  C9  RAL  6541       1.534  35.964 227.973  1.00 20.00     0.015 A 
BRANCH  30  33
HETATM   33  O11 RAL  6541       2.300  34.369 224.761  1.00 20.00    -0.361 OA
ATOM     34  H11 RAL  6541       2.997  34.920 224.424  1.00  0.00     0.217 HD
ENDBRANCH  30  33
ENDBRANCH   7  27
BRANCH   3  35
HETATM   35  O3  RAL  6541      -0.824  35.723 236.092  1.00 20.00    -0.361 OA
ATOM     36  H3  RAL  6541       0.024  35.812 236.513  1.00  0.00     0.217 HD
ENDBRANCH   3  35
TORSDOF 9
ENDMDL
MODEL 2
REMARK VINA RESULT:      -7.6      3.385      6.845
REMARK  9 active torsions:
REMARK  status: ('A' for Active; 'I' for Inactive)
REMARK    1  A    between atoms: C3_3  and  O3_4 
REMARK    2  A    between atoms: C7_9  and  C8_10 
REMARK    3  A    between atoms: C11_13  and  O11_14 
REMARK    4  A    between atoms: C15_19  and  C16_20 
REMARK    5  A    between atoms: C16_20  and  C17_22 
REMARK    6  A    between atoms: C20_25  and  O23_28 
REMARK    7  A    between atoms: C24_29  and  O23_28 
REMARK    8  A    between atoms: C24_29  and  C25_30 
REMARK    9  A    between atoms: C25_30  and  N26_31 
ROOT
HETATM    1  C1  RAL  6541       3.367  35.127 235.835  1.00 20.00     0.016 A 
HETATM    2  C2  RAL  6541       4.284  35.840 236.608  1.00 20.00     0.037 A 
HETATM    3  C3  RAL  6541       3.857  36.996 237.251  1.00 20.00     0.067 A 
HETATM    4  C4  RAL  6541       2.515  37.418 237.121  1.00 20.00     0.056 A 
HETATM    5  C5  RAL  6541       1.632  36.711 236.380  1.00 20.00     0.019 A 
HETATM    6  S6  RAL  6541       0.001  36.973 236.079  1.00 20.00    -0.088 SA
HETATM    7  C7  RAL  6541      -0.302  35.644 235.105  1.00 20.00     0.031 A 
HETATM    8  C14 RAL  6541       2.053  35.533 235.704  1.00 20.00    -0.003 A 
HETATM    9  C15 RAL  6541       0.923  34.928 234.982  1.00 20.00     0.044 A 
ENDROOT
BRANCH   9  10
HETATM   10  C16 RAL  6541       1.016  33.777 234.205  1.00 20.00     0.194 C 
HETATM   11  O16 RAL  6541       1.140  32.687 234.793  1.00 20.00    -0.287 OA
BRANCH  10  12
HETATM   12  C17 RAL  6541       0.982  33.810 232.746  1.00 20.00     0.015 A 
HETATM   13  C18 RAL  6541       1.380  34.946 232.042  1.00 20.00     0.018 A 
HETATM   14  C19 RAL  6541       1.366  35.036 230.629  1.00 20.00     0.037 A 
HETATM   15  C20 RAL  6541       0.916  33.912 229.954  1.00 20.00     0.068 A 
HETATM   16  C21 RAL  6541       0.514  32.789 230.660  1.00 20.00     0.037 A 
HETATM   17  C22 RAL  6541       0.544  32.715 232.020  1.00 20.00     0.018 A 
BRANCH  15  18
HETATM   18  O23 RAL  6541       0.789  33.712 228.582  1.00 20.00    -0.349 OA
BRANCH  18  19
HETATM   19  C24 RAL  6541       0.271  34.798 227.851  1.00 20.00     0.206 C 
BRANCH  19  20
HETATM   20  C25 RAL  6541      -1.205  34.860 228.221  1.00 20.00     0.299 C 
BRANCH  20  21
HETATM   21  N26 RAL  6541      -1.780  36.141 228.671  1.00 20.00     0.090 N 
HETATM   22  C27 RAL  6541      -2.930  36.415 227.769  1.00 20.00     0.272 C 
HETATM   23  C28 RAL  6541      -3.680  37.691 228.146  1.00 20.00     0.030 C 
HETATM   24  C29 RAL  6541      -2.714  38.892 228.067  1.00 20.00     0.003 C 
HETATM   25  C30 RAL  6541      -1.519  38.592 228.974  1.00 20.00     0.030 C 
HETATM   26  C31 RAL  6541      -0.845  37.271 228.580  1.00 20.00     0.272 C 
ENDBRANCH  20  21
ENDBRANCH  19  20
ENDBRANCH  18  19
ENDBRANCH  15  18
ENDBRANCH  10  12
ENDBRANCH   9  10
BRANCH   7  27
HETATM   27  C8  RAL  6541      -1.623  35.325 234.497  1.00 20.00    -0.018 A 
HETATM   28  C13 RAL  6541      -2.010  35.924 233.306  1.00 20.00     0.015 A 
HETATM   29  C12 RAL  6541      -3.248  35.645 232.731  1.00 20.00     0.037 A 
HETATM   30  C11 RAL  6541      -4.116  34.756 233.349  1.00 20.00     0.065 A 
HETATM   31  C10 RAL  6541      -3.742  34.151 234.537  1.00 20.00     0.037 A 
HETATM   32  C9  RAL  6541      -2.491  34.451 235.088  1.00 20.00     0.015 A 
BRANCH  30  33
HETATM   33  O11 RAL  6541      -5.348  34.467 232.789  1.00 20.00    -0.361 OA
ATOM     34  H11 RAL  6541      -5.868  33.751 233.135  1.00  0.00     0.217 HD
ENDBRANCH  30  33
ENDBRANCH   7  27
BRANCH   3  35
HETATM   35  O3  RAL  6541       4.765  37.711 238.003  1.00 20.00    -0.361 OA
ATOM     36  H3  RAL  6541       4.484  38.524 238.407  1.00  0.00     0.217 HD
ENDBRANCH   3  35
TORSDOF 9
ENDMDL
MODEL 3
REMARK VINA RESULT:      -7.5      3.662      7.836
REMARK  9 active torsions:
REMARK  status: ('A' for Active; 'I' for Inactive)
REMARK    1  A    between atoms: C3_3  and  O3_4 
REMARK    2  A    between atoms: C7_9  and  C8_10 
REMARK    3  A    between atoms: C11_13  and  O11_14 
REMARK    4  A    between atoms: C15_19  and  C16_20 
REMARK    5  A    between atoms: C16_20  and  C17_22 
REMARK    6  A    between atoms: C20_25  and  O23_28 
REMARK    7  A    between atoms: C24_29  and  O23_28 
REMARK    8  A    between atoms: C24_29  and  C25_30 
REMARK    9  A    between atoms: C25_30  and  N26_31 
ROOT
HETATM    1  C1  RAL  6541      -3.885  38.412 227.061  1.00 20.00     0.016 A 
HETATM    2  C2  RAL  6541      -5.052  38.512 226.303  1.00 20.00     0.037 A 
HETATM    3  C3  RAL  6541      -5.162  39.548 225.383  1.00 20.00     0.067 A 
HETATM    4  C4  RAL  6541      -4.098  40.464 225.224  1.00 20.00     0.056 A 
HETATM    5  C5  RAL  6541      -2.966  40.348 225.956  1.00 20.00     0.019 A 
HETATM    6  S6  RAL  6541      -1.565  41.273 225.953  1.00 20.00    -0.088 SA
HETATM    7  C7  RAL  6541      -0.700  40.440 227.121  1.00 20.00     0.031 A 
HETATM    8  C14 RAL  6541      -2.840  39.303 226.912  1.00 20.00    -0.003 A 
HETATM    9  C15 RAL  6541      -1.525  39.368 227.567  1.00 20.00     0.044 A 
ENDROOT
BRANCH   9  10
HETATM   10  C16 RAL  6541      -1.104  38.496 228.567  1.00 20.00     0.194 C 
HETATM   11  O16 RAL  6541      -1.221  38.867 229.749  1.00 20.00    -0.287 OA
BRANCH  10  12
HETATM   12  C17 RAL  6541      -0.531  37.186 228.274  1.00 20.00     0.015 A 
HETATM   13  C18 RAL  6541      -1.315  36.034 228.299  1.00 20.00     0.018 A 
HETATM   14  C19 RAL  6541      -0.813  34.738 228.026  1.00 20.00     0.037 A 
HETATM   15  C20 RAL  6541       0.539  34.662 227.732  1.00 20.00     0.068 A 
HETATM   16  C21 RAL  6541       1.316  35.810 227.717  1.00 20.00     0.037 A 
HETATM   17  C22 RAL  6541       0.814  37.051 227.971  1.00 20.00     0.018 A 
BRANCH  15  18
HETATM   18  O23 RAL  6541       1.303  33.538 227.430  1.00 20.00    -0.349 OA
BRANCH  18  19
HETATM   19  C24 RAL  6541       2.045  33.606 226.235  1.00 20.00     0.206 C 
BRANCH  19  20
HETATM   20  C25 RAL  6541       1.033  33.359 225.124  1.00 20.00     0.299 C 
BRANCH  20  21
HETATM   21  N26 RAL  6541       1.519  33.075 223.760  1.00 20.00     0.090 N 
HETATM   22  C27 RAL  6541       2.341  31.840 223.866  1.00 20.00     0.272 C 
HETATM   23  C28 RAL  6541       2.874  31.372 222.514  1.00 20.00     0.030 C 
HETATM   24  C29 RAL  6541       3.755  32.481 221.902  1.00 20.00     0.003 C 
HETATM   25  C30 RAL  6541       2.913  33.757 221.822  1.00 20.00     0.030 C 
HETATM   26  C31 RAL  6541       2.361  34.141 223.201  1.00 20.00     0.272 C 
ENDBRANCH  20  21
ENDBRANCH  19  20
ENDBRANCH  18  19
ENDBRANCH  15  18
ENDBRANCH  10  12
ENDBRANCH   9  10
BRANCH   7  27
HETATM   27  C8  RAL  6541       0.669  40.804 227.580  1.00 20.00    -0.018 A 
HETATM   28  C13 RAL  6541       1.785  40.295 226.930  1.00 20.00     0.015 A 
HETATM   29  C12 RAL  6541       3.073  40.617 227.356  1.00 20.00     0.037 A 
HETATM   30  C11 RAL  6541       3.254  41.458 228.445  1.00 20.00     0.065 A 
HETATM   31  C10 RAL  6541       2.148  41.973 229.101  1.00 20.00     0.037 A 
HETATM   32  C9  RAL  6541       0.869  41.632 228.648  1.00 20.00     0.015 A 
BRANCH  30  33
HETATM   33  O11 RAL  6541       4.526  41.789 228.877  1.00 20.00    -0.361 OA
ATOM     34  H11 RAL  6541       5.268  41.260 228.609  1.00  0.00     0.217 HD
ENDBRANCH  30  33
ENDBRANCH   7  27
BRANCH   3  35
HETATM   35  O3  RAL  6541      -6.321  39.658 224.644  1.00 20.00    -0.361 OA
ATOM     36  H3  RAL  6541      -6.850  40.442 224.737  1.00  0.00     0.217 HD
ENDBRANCH   3  35
TORSDOF 9
ENDMDL
MODEL 4
REMARK VINA RESULT:      -7.3      5.754      9.404
REMARK  9 active torsions:
REMARK  status: ('A' for Active; 'I' for Inactive)
REMARK    1  A    between atoms: C3_3  and  O3_4 
REMARK    2  A    between atoms: C7_9  and  C8_10 
REMARK    3  A    between atoms: C11_13  and  O11_14 
REMARK    4  A    between atoms: C15_19  and  C16_20 
REMARK    5  A    between atoms: C16_20  and  C17_22 
REMARK    6  A    between atoms: C20_25  and  O23_28 
REMARK    7  A    between atoms: C24_29  and  O23_28 
REMARK    8  A    between atoms: C24_29  and  C25_30 
REMARK    9  A    between atoms: C25_30  and  N26_31 
ROOT
HETATM    1  C1  RAL  6541      -0.926  35.433 236.480  1.00 20.00     0.016 A 
HETATM    2  C2  RAL  6541      -1.500  36.677 236.216  1.00 20.00     0.037 A 
HETATM    3  C3  RAL  6541      -0.729  37.819 236.400  1.00 20.00     0.067 A 
HETATM    4  C4  RAL  6541       0.610  37.701 236.834  1.00 20.00     0.056 A 
HETATM    5  C5  RAL  6541       1.160  36.488 237.074  1.00 20.00     0.019 A 
HETATM    6  S6  RAL  6541       2.708  36.070 237.571  1.00 20.00    -0.088 SA
HETATM    7  C7  RAL  6541       2.531  34.404 237.600  1.00 20.00     0.031 A 
HETATM    8  C14 RAL  6541       0.383  35.309 236.905  1.00 20.00    -0.003 A 
HETATM    9  C15 RAL  6541       1.193  34.119 237.205  1.00 20.00     0.044 A 
ENDROOT
BRANCH   9  10
HETATM   10  C16 RAL  6541       0.715  32.812 237.153  1.00 20.00     0.194 C 
HETATM   11  O16 RAL  6541       0.449  32.247 238.229  1.00 20.00    -0.287 OA
BRANCH  10  12
HETATM   12  C17 RAL  6541       0.527  32.096 235.895  1.00 20.00     0.015 A 
HETATM   13  C18 RAL  6541      -0.666  31.433 235.614  1.00 20.00     0.018 A 
HETATM   14  C19 RAL  6541      -0.902  30.721 234.413  1.00 20.00     0.037 A 
HETATM   15  C20 RAL  6541       0.143  30.703 233.503  1.00 20.00     0.068 A 
HETATM   16  C21 RAL  6541       1.330  31.357 233.791  1.00 20.00     0.037 A 
HETATM   17  C22 RAL  6541       1.537  32.047 234.948  1.00 20.00     0.018 A 
BRANCH  15  18
HETATM   18  O23 RAL  6541       0.201  30.088 232.255  1.00 20.00    -0.349 OA
BRANCH  18  19
HETATM   19  C24 RAL  6541       0.576  30.918 231.182  1.00 20.00     0.206 C 
BRANCH  19  20
HETATM   20  C25 RAL  6541      -0.630  31.814 230.931  1.00 20.00     0.299 C 
BRANCH  20  21
HETATM   21  N26 RAL  6541      -0.507  33.266 231.164  1.00 20.00     0.090 N 
HETATM   22  C27 RAL  6541       0.951  33.552 231.215  1.00 20.00     0.272 C 
HETATM   23  C28 RAL  6541       1.251  35.039 231.392  1.00 20.00     0.030 C 
HETATM   24  C29 RAL  6541       0.621  35.532 232.711  1.00 20.00     0.003 C 
HETATM   25  C30 RAL  6541      -0.874  35.209 232.667  1.00 20.00     0.030 C 
HETATM   26  C31 RAL  6541      -1.108  33.711 232.430  1.00 20.00     0.272 C 
ENDBRANCH  20  21
ENDBRANCH  19  20
ENDBRANCH  18  19
ENDBRANCH  15  18
ENDBRANCH  10  12
ENDBRANCH   9  10
BRANCH   7  27
HETATM   27  C8  RAL  6541       3.604  33.447 237.986  1.00 20.00    -0.018 A 
HETATM   28  C13 RAL  6541       4.092  33.428 239.286  1.00 20.00     0.015 A 
HETATM   29  C12 RAL  6541       5.105  32.546 239.659  1.00 20.00     0.037 A 
HETATM   30  C11 RAL  6541       5.640  31.669 238.727  1.00 20.00     0.065 A 
HETATM   31  C10 RAL  6541       5.162  31.678 237.428  1.00 20.00     0.037 A 
HETATM   32  C9  RAL  6541       4.143  32.574 237.085  1.00 20.00     0.015 A 
BRANCH  30  33
HETATM   33  O11 RAL  6541       6.645  30.786 239.084  1.00 20.00    -0.361 OA
ATOM     34  H11 RAL  6541       7.417  30.704 238.538  1.00  0.00     0.217 HD
ENDBRANCH  30  33
ENDBRANCH   7  27
BRANCH   3  35
HETATM   35  O3  RAL  6541      -1.299  39.050 236.154  1.00 20.00    -0.361 OA
ATOM     36  H3  RAL  6541      -2.247  39.120 236.139  1.00  0.00     0.217 HD
ENDBRANCH   3  35
TORSDOF 9
ENDMDL
MODEL 5
REMARK VINA RESULT:      -7.3      4.947      7.687
REMARK  9 active torsions:
REMARK  status: ('A' for Active; 'I' for Inactive)
REMARK    1  A    between atoms: C3_3  and  O3_4 
REMARK    2  A    between atoms: C7_9  and  C8_10 
REMARK    3  A    between atoms: C11_13  and  O11_14 
REMARK    4  A    between atoms: C15_19  and  C16_20 
REMARK    5  A    between atoms: C16_20  and  C17_22 
REMARK    6  A    between atoms: C20_25  and  O23_28 
REMARK    7  A    between atoms: C24_29  and  O23_28 
REMARK    8  A    between atoms: C24_29  and  C25_30 
REMARK    9  A    between atoms: C25_30  and  N26_31 
ROOT
HETATM    1  C1  RAL  6541       3.235  35.198 235.968  1.00 20.00     0.016 A 
HETATM    2  C2  RAL  6541       4.114  35.937 236.762  1.00 20.00     0.037 A 
HETATM    3  C3  RAL  6541       3.640  37.080 237.394  1.00 20.00     0.067 A 
HETATM    4  C4  RAL  6541       2.290  37.464 237.234  1.00 20.00     0.056 A 
HETATM    5  C5  RAL  6541       1.444  36.733 236.472  1.00 20.00     0.019 A 
HETATM    6  S6  RAL  6541      -0.186  36.950 236.134  1.00 20.00    -0.088 SA
HETATM    7  C7  RAL  6541      -0.429  35.613 235.154  1.00 20.00     0.031 A 
HETATM    8  C14 RAL  6541       1.914  35.567 235.806  1.00 20.00    -0.003 A 
HETATM    9  C15 RAL  6541       0.818  34.932 235.059  1.00 20.00     0.044 A 
ENDROOT
BRANCH   9  10
HETATM   10  C16 RAL  6541       0.961  33.783 234.285  1.00 20.00     0.194 C 
HETATM   11  O16 RAL  6541       1.098  32.697 234.876  1.00 20.00    -0.287 OA
BRANCH  10  12
HETATM   12  C17 RAL  6541       0.963  33.817 232.826  1.00 20.00     0.015 A 
HETATM   13  C18 RAL  6541       1.329  34.969 232.132  1.00 20.00     0.018 A 
HETATM   14  C19 RAL  6541       1.348  35.060 230.719  1.00 20.00     0.037 A 
HETATM   15  C20 RAL  6541       0.964  33.919 230.033  1.00 20.00     0.068 A 
HETATM   16  C21 RAL  6541       0.594  32.778 230.728  1.00 20.00     0.037 A 
HETATM   17  C22 RAL  6541       0.592  32.704 232.089  1.00 20.00     0.018 A 
BRANCH  15  18
HETATM   18  O23 RAL  6541       0.882  33.715 228.658  1.00 20.00    -0.349 OA
BRANCH  18  19
HETATM   19  C24 RAL  6541       1.921  34.278 227.894  1.00 20.00     0.206 C 
BRANCH  19  20
HETATM   20  C25 RAL  6541       1.569  33.960 226.446  1.00 20.00     0.299 C 
BRANCH  20  21
HETATM   21  N26 RAL  6541       2.330  32.916 225.734  1.00 20.00     0.090 N 
HETATM   22  C27 RAL  6541       1.625  32.705 224.441  1.00 20.00     0.272 C 
HETATM   23  C28 RAL  6541       2.331  31.686 223.549  1.00 20.00     0.030 C 
HETATM   24  C29 RAL  6541       2.400  30.330 224.282  1.00 20.00     0.003 C 
HETATM   25  C30 RAL  6541       3.099  30.558 225.624  1.00 20.00     0.030 C 
HETATM   26  C31 RAL  6541       2.376  31.632 226.447  1.00 20.00     0.272 C 
ENDBRANCH  20  21
ENDBRANCH  19  20
ENDBRANCH  18  19
ENDBRANCH  15  18
ENDBRANCH  10  12
ENDBRANCH   9  10
BRANCH   7  27
HETATM   27  C8  RAL  6541      -1.726  35.258 234.516  1.00 20.00    -0.018 A 
HETATM   28  C13 RAL  6541      -2.106  35.852 233.320  1.00 20.00     0.015 A 
HETATM   29  C12 RAL  6541      -3.323  35.539 232.717  1.00 20.00     0.037 A 
HETATM   30  C11 RAL  6541      -4.176  34.620 233.311  1.00 20.00     0.065 A 
HETATM   31  C10 RAL  6541      -3.808  34.019 234.503  1.00 20.00     0.037 A 
HETATM   32  C9  RAL  6541      -2.579  34.354 235.082  1.00 20.00     0.015 A 
BRANCH  30  33
HETATM   33  O11 RAL  6541      -5.386  34.297 232.723  1.00 20.00    -0.361 OA
ATOM     34  H11 RAL  6541      -5.462  33.506 232.202  1.00  0.00     0.217 HD
ENDBRANCH  30  33
ENDBRANCH   7  27
BRANCH   3  35
HETATM   35  O3  RAL  6541       4.511  37.820 238.166  1.00 20.00    -0.361 OA
ATOM     36  H3  RAL  6541       4.795  37.465 239.001  1.00  0.00     0.217 HD
ENDBRANCH   3  35
TORSDOF 9
ENDMDL
MODEL 6
REMARK VINA RESULT:      -7.2      4.410      8.076
REMARK  9 active torsions:
REMARK  status: ('A' for Active; 'I' for Inactive)
REMARK    1  A    between atoms: C3_3  and  O3_4 
REMARK    2  A    between atoms: C7_9  and  C8_10 
REMARK    3  A    between atoms: C11_13  and  O11_14 
REMARK    4  A    between atoms: C15_19  and  C16_20 
REMARK    5  A    between atoms: C16_20  and  C17_22 
REMARK    6  A    between atoms: C20_25  and  O23_28 
REMARK    7  A    between atoms: C24_29  and  O23_28 
REMARK    8  A    between atoms: C24_29  and  C25_30 
REMARK    9  A    between atoms: C25_30  and  N26_31 
ROOT
HETATM    1  C1  RAL  6541       1.162  37.311 236.511  1.00 20.00     0.016 A 
HETATM    2  C2  RAL  6541       2.461  37.801 236.655  1.00 20.00     0.037 A 
HETATM    3  C3  RAL  6541       3.436  36.957 237.173  1.00 20.00     0.067 A 
HETATM    4  C4  RAL  6541       3.103  35.631 237.529  1.00 20.00     0.056 A 
HETATM    5  C5  RAL  6541       1.843  35.164 237.372  1.00 20.00     0.019 A 
HETATM    6  S6  RAL  6541       1.192  33.650 237.691  1.00 20.00    -0.088 SA
HETATM    7  C7  RAL  6541      -0.385  33.936 237.202  1.00 20.00     0.031 A 
HETATM    8  C14 RAL  6541       0.828  36.016 236.857  1.00 20.00    -0.003 A 
HETATM    9  C15 RAL  6541      -0.446  35.288 236.759  1.00 20.00     0.044 A 
ENDROOT
BRANCH   9  10
HETATM   10  C16 RAL  6541      -1.638  35.852 236.311  1.00 20.00     0.194 C 
HETATM   11  O16 RAL  6541      -2.353  36.438 237.144  1.00 20.00    -0.287 OA
BRANCH  10  12
HETATM   12  C17 RAL  6541      -2.070  35.768 234.919  1.00 20.00     0.015 A 
HETATM   13  C18 RAL  6541      -1.450  36.523 233.926  1.00 20.00     0.018 A 
HETATM   14  C19 RAL  6541      -1.828  36.484 232.561  1.00 20.00     0.037 A 
HETATM   15  C20 RAL  6541      -2.883  35.641 232.249  1.00 20.00     0.068 A 
HETATM   16  C21 RAL  6541      -3.500  34.898 233.242  1.00 20.00     0.037 A 
HETATM   17  C22 RAL  6541      -3.117  34.940 234.549  1.00 20.00     0.018 A 
BRANCH  15  18
HETATM   18  O23 RAL  6541      -3.468  35.402 231.008  1.00 20.00    -0.349 OA
BRANCH  18  19
HETATM   19  C24 RAL  6541      -3.312  34.098 230.500  1.00 20.00     0.206 C 
BRANCH  19  20
HETATM   20  C25 RAL  6541      -2.616  34.275 229.157  1.00 20.00     0.299 C 
BRANCH  20  21
HETATM   21  N26 RAL  6541      -1.141  34.279 229.107  1.00 20.00     0.090 N 
HETATM   22  C27 RAL  6541      -0.686  33.617 230.359  1.00 20.00     0.272 C 
HETATM   23  C28 RAL  6541       0.833  33.485 230.434  1.00 20.00     0.030 C 
HETATM   24  C29 RAL  6541       1.470  34.889 230.377  1.00 20.00     0.003 C 
HETATM   25  C30 RAL  6541       0.976  35.577 229.102  1.00 20.00     0.030 C 
HETATM   26  C31 RAL  6541      -0.558  35.626 229.061  1.00 20.00     0.272 C 
ENDBRANCH  20  21
ENDBRANCH  19  20
ENDBRANCH  18  19
ENDBRANCH  15  18
ENDBRANCH  10  12
ENDBRANCH   9  10
BRANCH   7  27
HETATM   27  C8  RAL  6541      -1.482  32.931 237.256  1.00 20.00    -0.018 A 
HETATM   28  C13 RAL  6541      -2.339  32.886 238.348  1.00 20.00     0.015 A 
HETATM   29  C12 RAL  6541      -3.363  31.943 238.418  1.00 20.00     0.037 A 
HETATM   30  C11 RAL  6541      -3.538  31.031 237.387  1.00 20.00     0.065 A 
HETATM   31  C10 RAL  6541      -2.691  31.066 236.293  1.00 20.00     0.037 A 
HETATM   32  C9  RAL  6541      -1.674  32.026 236.251  1.00 20.00     0.015 A 
BRANCH  30  33
HETATM   33  O11 RAL  6541      -4.552  30.090 237.441  1.00 20.00    -0.361 OA
ATOM     34  H11 RAL  6541      -5.309  30.178 236.874  1.00  0.00     0.217 HD
ENDBRANCH  30  33
ENDBRANCH   7  27
BRANCH   3  35
HETATM   35  O3  RAL  6541       4.717  37.443 237.331  1.00 20.00    -0.361 OA
ATOM     36  H3  RAL  6541       5.191  37.233 238.128  1.00  0.00     0.217 HD
ENDBRANCH   3  35
TORSDOF 9
ENDMDL
MODEL 7
REMARK VINA RESULT:      -7.1      2.950      7.245
REMARK  9 active torsions:
REMARK  status: ('A' for Active; 'I' for Inactive)
REMARK    1  A    between atoms: C3_3  and  O3_4 
REMARK    2  A    between atoms: C7_9  and  C8_10 
REMARK    3  A    between atoms: C11_13  and  O11_14 
REMARK    4  A    between atoms: C15_19  and  C16_20 
REMARK    5  A    between atoms: C16_20  and  C17_22 
REMARK    6  A    between atoms: C20_25  and  O23_28 
REMARK    7  A    between atoms: C24_29  and  O23_28 
REMARK    8  A    between atoms: C24_29  and  C25_30 
REMARK    9  A    between atoms: C25_30  and  N26_31 
ROOT
HETATM    1  C1  RAL  6541      -1.351  40.013 228.447  1.00 20.00     0.016 A 
HETATM    2  C2  RAL  6541      -0.894  41.277 228.072  1.00 20.00     0.037 A 
HETATM    3  C3  RAL  6541       0.377  41.390 227.522  1.00 20.00     0.067 A 
HETATM    4  C4  RAL  6541       1.171  40.235 227.344  1.00 20.00     0.056 A 
HETATM    5  C5  RAL  6541       0.712  39.013 227.699  1.00 20.00     0.019 A 
HETATM    6  S6  RAL  6541       1.429  37.500 227.579  1.00 20.00    -0.088 SA
HETATM    7  C7  RAL  6541       0.189  36.572 228.218  1.00 20.00     0.031 A 
HETATM    8  C14 RAL  6541      -0.581  38.879 228.276  1.00 20.00    -0.003 A 
HETATM    9  C15 RAL  6541      -0.866  37.465 228.561  1.00 20.00     0.044 A 
ENDROOT
BRANCH   9  10
HETATM   10  C16 RAL  6541      -2.043  37.006 229.148  1.00 20.00     0.194 C 
HETATM   11  O16 RAL  6541      -3.104  37.154 228.515  1.00 20.00    -0.287 OA
BRANCH  10  12
HETATM   12  C17 RAL  6541      -2.068  36.377 230.464  1.00 20.00     0.015 A 
HETATM   13  C18 RAL  6541      -1.450  36.976 231.561  1.00 20.00     0.018 A 
HETATM   14  C19 RAL  6541      -1.441  36.410 232.860  1.00 20.00     0.037 A 
HETATM   15  C20 RAL  6541      -2.086  35.192 232.995  1.00 20.00     0.068 A 
HETATM   16  C21 RAL  6541      -2.692  34.598 231.899  1.00 20.00     0.037 A 
HETATM   17  C22 RAL  6541      -2.701  35.160 230.659  1.00 20.00     0.018 A 
BRANCH  15  18
HETATM   18  O23 RAL  6541      -2.235  34.407 234.135  1.00 20.00    -0.349 OA
BRANCH  18  19
HETATM   19  C24 RAL  6541      -2.700  35.077 235.282  1.00 20.00     0.206 C 
BRANCH  19  20
HETATM   20  C25 RAL  6541      -1.773  34.634 236.407  1.00 20.00     0.299 C 
BRANCH  20  21
HETATM   21  N26 RAL  6541      -0.790  35.592 236.946  1.00 20.00     0.090 N 
HETATM   22  C27 RAL  6541      -1.185  36.926 236.421  1.00 20.00     0.272 C 
HETATM   23  C28 RAL  6541      -0.292  38.050 236.943  1.00 20.00     0.030 C 
HETATM   24  C29 RAL  6541       1.166  37.782 236.516  1.00 20.00     0.003 C 
HETATM   25  C30 RAL  6541       1.558  36.396 237.033  1.00 20.00     0.030 C 
HETATM   26  C31 RAL  6541       0.590  35.321 236.520  1.00 20.00     0.272 C 
ENDBRANCH  20  21
ENDBRANCH  19  20
ENDBRANCH  18  19
ENDBRANCH  15  18
ENDBRANCH  10  12
ENDBRANCH   9  10
BRANCH   7  27
HETATM   27  C8  RAL  6541       0.240  35.094 228.387  1.00 20.00    -0.018 A 
HETATM   28  C13 RAL  6541       0.819  34.536 229.519  1.00 20.00     0.015 A 
HETATM   29  C12 RAL  6541       0.885  33.154 229.685  1.00 20.00     0.037 A 
HETATM   30  C11 RAL  6541       0.367  32.313 228.711  1.00 20.00     0.065 A 
HETATM   31  C10 RAL  6541      -0.214  32.856 227.577  1.00 20.00     0.037 A 
HETATM   32  C9  RAL  6541      -0.266  34.248 227.441  1.00 20.00     0.015 A 
BRANCH  30  33
HETATM   33  O11 RAL  6541       0.423  30.938 228.863  1.00 20.00    -0.361 OA
ATOM     34  H11 RAL  6541       0.674  30.565 229.700  1.00  0.00     0.217 HD
ENDBRANCH  30  33
ENDBRANCH   7  27
BRANCH   3  35
HETATM   35  O3  RAL  6541       0.837  42.640 227.165  1.00 20.00    -0.361 OA
ATOM     36  H3  RAL  6541       1.537  42.704 226.526  1.00  0.00     0.217 HD
ENDBRANCH   3  35
TORSDOF 9
ENDMDL
MODEL 8
REMARK VINA RESULT:      -7.0      3.996      8.672
REMARK  9 active torsions:
REMARK  status: ('A' for Active; 'I' for Inactive)
REMARK    1  A    between atoms: C3_3  and  O3_4 
REMARK    2  A    between atoms: C7_9  and  C8_10 
REMARK    3  A    between atoms: C11_13  and  O11_14 
REMARK    4  A    between atoms: C15_19  and  C16_20 
REMARK    5  A    between atoms: C16_20  and  C17_22 
REMARK    6  A    between atoms: C20_25  and  O23_28 
REMARK    7  A    between atoms: C24_29  and  O23_28 
REMARK    8  A    between atoms: C24_29  and  C25_30 
REMARK    9  A    between atoms: C25_30  and  N26_31 
ROOT
HETATM    1  C1  RAL  6541       2.011  34.565 228.490  1.00 20.00     0.016 A 
HETATM    2  C2  RAL  6541       2.793  35.309 227.606  1.00 20.00     0.037 A 
HETATM    3  C3  RAL  6541       2.320  36.543 227.176  1.00 20.00     0.067 A 
HETATM    4  C4  RAL  6541       1.076  37.022 227.644  1.00 20.00     0.056 A 
HETATM    5  C5  RAL  6541       0.334  36.297 228.511  1.00 20.00     0.019 A 
HETATM    6  S6  RAL  6541      -1.146  36.634 229.229  1.00 20.00    -0.088 SA
HETATM    7  C7  RAL  6541      -1.316  35.241 230.145  1.00 20.00     0.031 A 
HETATM    8  C14 RAL  6541       0.794  35.026 228.953  1.00 20.00    -0.003 A 
HETATM    9  C15 RAL  6541      -0.166  34.438 229.899  1.00 20.00     0.044 A 
ENDROOT
BRANCH   9  10
HETATM   10  C16 RAL  6541      -0.013  33.188 230.494  1.00 20.00     0.194 C 
HETATM   11  O16 RAL  6541      -0.419  32.192 229.868  1.00 20.00    -0.287 OA
BRANCH  10  12
HETATM   12  C17 RAL  6541       0.590  33.016 231.812  1.00 20.00     0.015 A 
HETATM   13  C18 RAL  6541       0.952  31.754 232.280  1.00 20.00     0.018 A 
HETATM   14  C19 RAL  6541       1.538  31.528 233.550  1.00 20.00     0.037 A 
HETATM   15  C20 RAL  6541       1.733  32.652 234.336  1.00 20.00     0.068 A 
HETATM   16  C21 RAL  6541       1.364  33.903 233.869  1.00 20.00     0.037 A 
HETATM   17  C22 RAL  6541       0.811  34.105 232.640  1.00 20.00     0.018 A 
BRANCH  15  18
HETATM   18  O23 RAL  6541       2.278  32.737 235.615  1.00 20.00    -0.349 OA
BRANCH  18  19
HETATM   19  C24 RAL  6541       1.360  32.975 236.655  1.00 20.00     0.206 C 
BRANCH  19  20
HETATM   20  C25 RAL  6541       2.138  33.766 237.699  1.00 20.00     0.299 C 
BRANCH  20  21
HETATM   21  N26 RAL  6541       2.033  35.237 237.712  1.00 20.00     0.090 N 
HETATM   22  C27 RAL  6541       0.765  35.564 237.006  1.00 20.00     0.272 C 
HETATM   23  C28 RAL  6541       0.475  37.063 236.986  1.00 20.00     0.030 C 
HETATM   24  C29 RAL  6541       1.626  37.795 236.265  1.00 20.00     0.003 C 
HETATM   25  C30 RAL  6541       2.931  37.433 236.977  1.00 20.00     0.030 C 
HETATM   26  C31 RAL  6541       3.135  35.912 237.013  1.00 20.00     0.272 C 
ENDBRANCH  20  21
ENDBRANCH  19  20
ENDBRANCH  18  19
ENDBRANCH  15  18
ENDBRANCH  10  12
ENDBRANCH   9  10
BRANCH   7  27
HETATM   27  C8  RAL  6541      -2.479  34.944 231.024  1.00 20.00    -0.018 A 
HETATM   28  C13 RAL  6541      -2.586  35.544 232.272  1.00 20.00     0.015 A 
HETATM   29  C12 RAL  6541      -3.663  35.266 233.112  1.00 20.00     0.037 A 
HETATM   30  C11 RAL  6541      -4.650  34.379 232.706  1.00 20.00     0.065 A 
HETATM   31  C10 RAL  6541      -4.555  33.775 231.463  1.00 20.00     0.037 A 
HETATM   32  C9  RAL  6541      -3.462  34.076 230.643  1.00 20.00     0.015 A 
BRANCH  30  33
HETATM   33  O11 RAL  6541      -5.726  34.095 233.528  1.00 20.00    -0.361 OA
ATOM     34  H11 RAL  6541      -6.555  34.539 233.391  1.00  0.00     0.217 HD
ENDBRANCH  30  33
ENDBRANCH   7  27
BRANCH   3  35
HETATM   35  O3  RAL  6541       3.084  37.273 226.290  1.00 20.00    -0.361 OA
ATOM     36  H3  RAL  6541       2.832  37.288 225.373  1.00  0.00     0.217 HD
ENDBRANCH   3  35
TORSDOF 9
ENDMDL
MODEL 9
REMARK VINA RESULT:      -6.9      3.525      7.336
REMARK  9 active torsions:
REMARK  status: ('A' for Active; 'I' for Inactive)
REMARK    1  A    between atoms: C3_3  and  O3_4 
REMARK    2  A    between atoms: C7_9  and  C8_10 
REMARK    3  A    between atoms: C11_13  and  O11_14 
REMARK    4  A    between atoms: C15_19  and  C16_20 
REMARK    5  A    between atoms: C16_20  and  C17_22 
REMARK    6  A    between atoms: C20_25  and  O23_28 
REMARK    7  A    between atoms: C24_29  and  O23_28 
REMARK    8  A    between atoms: C24_29  and  C25_30 
REMARK    9  A    between atoms: C25_30  and  N26_31 
ROOT
HETATM    1  C1  RAL  6541       1.383  37.318 236.602  1.00 20.00     0.016 A 
HETATM    2  C2  RAL  6541       2.683  37.767 236.839  1.00 20.00     0.037 A 
HETATM    3  C3  RAL  6541       3.603  36.883 237.392  1.00 20.00     0.067 A 
HETATM    4  C4  RAL  6541       3.214  35.558 237.689  1.00 20.00     0.056 A 
HETATM    5  C5  RAL  6541       1.954  35.130 237.442  1.00 20.00     0.019 A 
HETATM    6  S6  RAL  6541       1.245  33.627 237.678  1.00 20.00    -0.088 SA
HETATM    7  C7  RAL  6541      -0.291  33.970 237.103  1.00 20.00     0.031 A 
HETATM    8  C14 RAL  6541       0.995  36.024 236.890  1.00 20.00    -0.003 A 
HETATM    9  C15 RAL  6541      -0.289  35.334 236.694  1.00 20.00     0.044 A 
ENDROOT
BRANCH   9  10
HETATM   10  C16 RAL  6541      -1.436  35.943 236.190  1.00 20.00     0.194 C 
HETATM   11  O16 RAL  6541      -2.201  36.500 236.998  1.00 20.00    -0.287 OA
BRANCH  10  12
HETATM   12  C17 RAL  6541      -1.766  35.937 234.769  1.00 20.00     0.015 A 
HETATM   13  C18 RAL  6541      -2.902  35.284 234.295  1.00 20.00     0.018 A 
HETATM   14  C19 RAL  6541      -3.271  35.244 232.928  1.00 20.00     0.037 A 
HETATM   15  C20 RAL  6541      -2.417  35.895 232.052  1.00 20.00     0.068 A 
HETATM   16  C21 RAL  6541      -1.285  36.536 232.527  1.00 20.00     0.037 A 
HETATM   17  C22 RAL  6541      -0.951  36.575 233.848  1.00 20.00     0.018 A 
BRANCH  15  18
HETATM   18  O23 RAL  6541      -2.518  36.019 230.668  1.00 20.00    -0.349 OA
BRANCH  18  19
HETATM   19  C24 RAL  6541      -1.750  37.046 230.089  1.00 20.00     0.206 C 
BRANCH  19  20
HETATM   20  C25 RAL  6541      -2.597  37.580 228.941  1.00 20.00     0.299 C 
BRANCH  20  21
HETATM   21  N26 RAL  6541      -2.433  38.984 228.520  1.00 20.00     0.090 N 
HETATM   22  C27 RAL  6541      -2.787  39.024 227.076  1.00 20.00     0.272 C 
HETATM   23  C28 RAL  6541      -2.727  40.435 226.497  1.00 20.00     0.030 C 
HETATM   24  C29 RAL  6541      -1.296  40.990 226.653  1.00 20.00     0.003 C 
HETATM   25  C30 RAL  6541      -0.926  40.920 228.136  1.00 20.00     0.030 C 
HETATM   26  C31 RAL  6541      -1.061  39.488 228.672  1.00 20.00     0.272 C 
ENDBRANCH  20  21
ENDBRANCH  19  20
ENDBRANCH  18  19
ENDBRANCH  15  18
ENDBRANCH  10  12
ENDBRANCH   9  10
BRANCH   7  27
HETATM   27  C8  RAL  6541      -1.415  32.995 237.061  1.00 20.00    -0.018 A 
HETATM   28  C13 RAL  6541      -2.262  32.853 238.152  1.00 20.00     0.015 A 
HETATM   29  C12 RAL  6541      -3.311  31.936 238.133  1.00 20.00     0.037 A 
HETATM   30  C11 RAL  6541      -3.523  31.147 237.011  1.00 20.00     0.065 A 
HETATM   31  C10 RAL  6541      -2.686  31.280 235.916  1.00 20.00     0.037 A 
HETATM   32  C9  RAL  6541      -1.643  32.211 235.966  1.00 20.00     0.015 A 
BRANCH  30  33
HETATM   33  O11 RAL  6541      -4.562  30.234 236.976  1.00 20.00    -0.361 OA
ATOM     34  H11 RAL  6541      -5.424  30.511 236.690  1.00  0.00     0.217 HD
ENDBRANCH  30  33
ENDBRANCH   7  27
BRANCH   3  35
HETATM   35  O3  RAL  6541       4.884  37.329 237.641  1.00 20.00    -0.361 OA
ATOM     36  H3  RAL  6541       5.556  37.176 236.987  1.00  0.00     0.217 HD
ENDBRANCH   3  35
TORSDOF 9
ENDMDL
