MODEL 1
REMARK VINA RESULT:      -7.2      0.000      0.000
REMARK  0 active torsions:
REMARK  status: ('A' for Active; 'I' for Inactive)
ROOT
ATOM      1  N1  UNK     1      -1.802  35.746 236.600  1.00  0.00     0.084 N 
ATOM      2  C1  UNK     1       0.301  34.536 236.491  1.00  0.00     0.065 C 
ATOM      3  C2  UNK     1      -1.093  34.567 237.101  1.00  0.00     0.276 C 
ATOM      4  C3  UNK     1      -3.028  35.955 237.384  1.00  0.00     0.309 C 
ATOM      5  C4  UNK     1      -2.133  35.486 235.193  1.00  0.00     0.276 C 
ATOM      6  C5  UNK     1      -0.838  35.459 234.375  1.00  0.00     0.065 C 
ATOM      7  C6  UNK     1       0.228  34.555 234.980  1.00  0.00    -0.065 C 
ATOM      8  C7  UNK     1       1.080  33.818 234.219  1.00  0.00    -0.012 C 
ATOM      9  C8  UNK     1       2.133  32.938 234.836  1.00  0.00    -0.015 A 
ATOM     10  C9  UNK     1       3.168  33.488 235.597  1.00  0.00     0.013 A 
ATOM     11  C10 UNK     1       4.139  32.687 236.176  1.00  0.00     0.001 A 
ATOM     12  C11 UNK     1       4.092  31.315 235.978  1.00  0.00     0.001 A 
ATOM     13  C12 UNK     1       3.076  30.761 235.204  1.00  0.00     0.012 A 
ATOM     14  C13 UNK     1       2.103  31.567 234.624  1.00  0.00    -0.025 A 
ATOM     15  C14 UNK     1       1.050  30.899 233.817  1.00  0.00     0.013 C 
ATOM     16  C15 UNK     1       0.491  31.365 232.697  1.00  0.00     0.013 C 
ATOM     17  C16 UNK     1       0.770  32.656 232.018  1.00  0.00    -0.025 A 
ATOM     18  C17 UNK     1       1.034  33.829 232.714  1.00  0.00    -0.015 A 
ATOM     19  C18 UNK     1       1.289  35.009 232.004  1.00  0.00     0.013 A 
ATOM     20  C19 UNK     1       1.244  35.026 230.616  1.00  0.00     0.001 A 
ATOM     21  C20 UNK     1       0.963  33.851 229.930  1.00  0.00     0.001 A 
ATOM     22  C21 UNK     1       0.723  32.675 230.628  1.00  0.00     0.012 A 
ENDROOT
TORSDOF 0
ENDMDL
MODEL 2
REMARK VINA RESULT:      -7.0      2.722      5.038
REMARK  0 active torsions:
REMARK  status: ('A' for Active; 'I' for Inactive)
ROOT
ATOM      1  N1  UNK     1      -1.296  34.595 235.480  1.00  0.00     0.084 N 
ATOM      2  C1  UNK     1       0.742  35.561 236.380  1.00  0.00     0.065 C 
ATOM      3  C2  UNK     1      -0.748  35.350 236.608  1.00  0.00     0.276 C 
ATOM      4  C3  UNK     1      -2.765  34.625 235.532  1.00  0.00     0.309 C 
ATOM      5  C4  UNK     1      -0.810  33.215 235.606  1.00  0.00     0.276 C 
ATOM      6  C5  UNK     1       0.702  33.197 235.362  1.00  0.00     0.065 C 
ATOM      7  C6  UNK     1       1.449  34.238 236.185  1.00  0.00    -0.065 C 
ATOM      8  C7  UNK     1       2.685  34.011 236.704  1.00  0.00    -0.012 C 
ATOM      9  C8  UNK     1       3.410  35.057 237.507  1.00  0.00    -0.015 A 
ATOM     10  C9  UNK     1       3.795  36.267 236.924  1.00  0.00     0.013 A 
ATOM     11  C10 UNK     1       4.458  37.240 237.655  1.00  0.00     0.001 A 
ATOM     12  C11 UNK     1       4.761  36.997 238.986  1.00  0.00     0.001 A 
ATOM     13  C12 UNK     1       4.400  35.786 239.570  1.00  0.00     0.012 A 
ATOM     14  C13 UNK     1       3.736  34.811 238.834  1.00  0.00    -0.025 A 
ATOM     15  C14 UNK     1       3.381  33.548 239.531  1.00  0.00     0.013 C 
ATOM     16  C15 UNK     1       3.400  32.319 239.008  1.00  0.00     0.013 C 
ATOM     17  C16 UNK     1       3.755  31.935 237.618  1.00  0.00    -0.025 A 
ATOM     18  C17 UNK     1       3.414  32.707 236.515  1.00  0.00    -0.015 A 
ATOM     19  C18 UNK     1       3.783  32.280 235.234  1.00  0.00     0.013 A 
ATOM     20  C19 UNK     1       4.452  31.077 235.052  1.00  0.00     0.001 A 
ATOM     21  C20 UNK     1       4.774  30.303 236.160  1.00  0.00     0.001 A 
ATOM     22  C21 UNK     1       4.422  30.729 237.435  1.00  0.00     0.012 A 
ENDROOT
TORSDOF 0
ENDMDL
MODEL 3
REMARK VINA RESULT:      -6.9      2.394      5.590
REMARK  0 active torsions:
REMARK  status: ('A' for Active; 'I' for Inactive)
ROOT
ATOM      1  N1  UNK     1       4.558  31.487 236.473  1.00  0.00     0.084 N 
ATOM      2  C1  UNK     1       2.892  31.927 234.761  1.00  0.00     0.065 C 
ATOM      3  C2  UNK     1       3.382  30.931 235.803  1.00  0.00     0.276 C 
ATOM      4  C3  UNK     1       5.213  30.440 237.271  1.00  0.00     0.309 C 
ATOM      5  C4  UNK     1       4.088  32.573 237.343  1.00  0.00     0.276 C 
ATOM      6  C5  UNK     1       3.582  33.725 236.470  1.00  0.00     0.065 C 
ATOM      7  C6  UNK     1       2.604  33.270 235.395  1.00  0.00    -0.065 C 
ATOM      8  C7  UNK     1       1.541  34.024 235.007  1.00  0.00    -0.012 C 
ATOM      9  C8  UNK     1       0.592  33.561 233.936  1.00  0.00    -0.015 A 
ATOM     10  C9  UNK     1       1.032  33.370 232.623  1.00  0.00     0.013 A 
ATOM     11  C10 UNK     1       0.168  32.937 231.630  1.00  0.00     0.001 A 
ATOM     12  C11 UNK     1      -1.163  32.709 231.943  1.00  0.00     0.001 A 
ATOM     13  C12 UNK     1      -1.616  32.917 233.243  1.00  0.00     0.012 A 
ATOM     14  C13 UNK     1      -0.747  33.351 234.238  1.00  0.00    -0.025 A 
ATOM     15  C14 UNK     1      -1.305  33.544 235.601  1.00  0.00     0.013 C 
ATOM     16  C15 UNK     1      -0.972  34.503 236.468  1.00  0.00     0.013 C 
ATOM     17  C16 UNK     1       0.040  35.575 236.284  1.00  0.00    -0.025 A 
ATOM     18  C17 UNK     1       1.240  35.368 235.615  1.00  0.00    -0.015 A 
ATOM     19  C18 UNK     1       2.145  36.428 235.481  1.00  0.00     0.013 A 
ATOM     20  C19 UNK     1       1.874  37.669 236.042  1.00  0.00     0.001 A 
ATOM     21  C20 UNK     1       0.679  37.860 236.725  1.00  0.00     0.001 A 
ATOM     22  C21 UNK     1      -0.229  36.817 236.849  1.00  0.00     0.012 A 
ENDROOT
TORSDOF 0
ENDMDL
MODEL 4
REMARK VINA RESULT:      -6.9      2.815      4.982
REMARK  0 active torsions:
REMARK  status: ('A' for Active; 'I' for Inactive)
ROOT
ATOM      1  N1  UNK     1      -2.769  32.121 237.907  1.00  0.00     0.084 N 
ATOM      2  C1  UNK     1      -1.425  34.061 237.334  1.00  0.00     0.065 C 
ATOM      3  C2  UNK     1      -2.269  33.400 238.414  1.00  0.00     0.276 C 
ATOM      4  C3  UNK     1      -3.807  31.603 238.810  1.00  0.00     0.309 C 
ATOM      5  C4  UNK     1      -1.628  31.198 237.859  1.00  0.00     0.276 C 
ATOM      6  C5  UNK     1      -0.654  31.669 236.774  1.00  0.00     0.065 C 
ATOM      7  C6  UNK     1      -0.304  33.147 236.892  1.00  0.00    -0.065 C 
ATOM      8  C7  UNK     1       0.934  33.630 236.604  1.00  0.00    -0.012 C 
ATOM      9  C8  UNK     1       1.257  35.095 236.717  1.00  0.00    -0.015 A 
ATOM     10  C9  UNK     1       0.618  36.034 235.902  1.00  0.00     0.013 A 
ATOM     11  C10 UNK     1       0.902  37.387 236.003  1.00  0.00     0.001 A 
ATOM     12  C11 UNK     1       1.855  37.811 236.916  1.00  0.00     0.001 A 
ATOM     13  C12 UNK     1       2.512  36.882 237.717  1.00  0.00     0.012 A 
ATOM     14  C13 UNK     1       2.225  35.525 237.614  1.00  0.00    -0.025 A 
ATOM     15  C14 UNK     1       2.965  34.597 238.507  1.00  0.00     0.013 C 
ATOM     16  C15 UNK     1       3.398  33.372 238.199  1.00  0.00     0.013 C 
ATOM     17  C16 UNK     1       3.222  32.650 236.913  1.00  0.00    -0.025 A 
ATOM     18  C17 UNK     1       2.063  32.742 236.152  1.00  0.00    -0.015 A 
ATOM     19  C18 UNK     1       1.970  32.031 234.949  1.00  0.00     0.013 A 
ATOM     20  C19 UNK     1       3.006  31.208 234.529  1.00  0.00     0.001 A 
ATOM     21  C20 UNK     1       4.154  31.110 235.306  1.00  0.00     0.001 A 
ATOM     22  C21 UNK     1       4.258  31.823 236.493  1.00  0.00     0.012 A 
ENDROOT
TORSDOF 0
ENDMDL
MODEL 5
REMARK VINA RESULT:      -6.8      2.228      4.997
REMARK  0 active torsions:
REMARK  status: ('A' for Active; 'I' for Inactive)
ROOT
ATOM      1  N1  UNK     1      -0.197  34.249 230.615  1.00  0.00     0.084 N 
ATOM      2  C1  UNK     1       0.713  33.230 232.623  1.00  0.00     0.065 C 
ATOM      3  C2  UNK     1       0.992  33.606 231.174  1.00  0.00     0.276 C 
ATOM      4  C3  UNK     1      -0.058  34.361 229.156  1.00  0.00     0.309 C 
ATOM      5  C4  UNK     1      -0.294  35.583 231.222  1.00  0.00     0.276 C 
ATOM      6  C5  UNK     1      -0.624  35.428 232.710  1.00  0.00     0.065 C 
ATOM      7  C6  UNK     1       0.294  34.443 233.422  1.00  0.00    -0.065 C 
ATOM      8  C7  UNK     1       0.705  34.624 234.706  1.00  0.00    -0.012 C 
ATOM      9  C8  UNK     1       1.604  33.634 235.395  1.00  0.00    -0.015 A 
ATOM     10  C9  UNK     1       1.176  32.325 235.637  1.00  0.00     0.013 A 
ATOM     11  C10 UNK     1       1.998  31.403 236.264  1.00  0.00     0.001 A 
ATOM     12  C11 UNK     1       3.262  31.795 236.678  1.00  0.00     0.001 A 
ATOM     13  C12 UNK     1       3.689  33.102 236.461  1.00  0.00     0.012 A 
ATOM     14  C13 UNK     1       2.863  34.025 235.830  1.00  0.00    -0.025 A 
ATOM     15  C14 UNK     1       3.394  35.398 235.631  1.00  0.00     0.013 C 
ATOM     16  C15 UNK     1       2.704  36.538 235.716  1.00  0.00     0.013 C 
ATOM     17  C16 UNK     1       1.256  36.697 236.005  1.00  0.00    -0.025 A 
ATOM     18  C17 UNK     1       0.293  35.818 235.525  1.00  0.00    -0.015 A 
ATOM     19  C18 UNK     1      -1.054  36.033 235.840  1.00  0.00     0.013 A 
ATOM     20  C19 UNK     1      -1.441  37.134 236.593  1.00  0.00     0.001 A 
ATOM     21  C20 UNK     1      -0.472  38.017 237.054  1.00  0.00     0.001 A 
ATOM     22  C21 UNK     1       0.868  37.801 236.756  1.00  0.00     0.012 A 
ENDROOT
TORSDOF 0
ENDMDL
MODEL 6
REMARK VINA RESULT:      -6.8      3.020      5.130
REMARK  0 active torsions:
REMARK  status: ('A' for Active; 'I' for Inactive)
ROOT
ATOM      1  N1  UNK     1      -2.965  35.856 232.797  1.00  0.00     0.084 N 
ATOM      2  C1  UNK     1      -2.849  34.694 234.926  1.00  0.00     0.065 C 
ATOM      3  C2  UNK     1      -3.020  34.534 233.422  1.00  0.00     0.276 C 
ATOM      4  C3  UNK     1      -3.409  35.760 231.398  1.00  0.00     0.309 C 
ATOM      5  C4  UNK     1      -1.568  36.306 232.859  1.00  0.00     0.276 C 
ATOM      6  C5  UNK     1      -1.197  36.574 234.320  1.00  0.00     0.065 C 
ATOM      7  C6  UNK     1      -1.561  35.420 235.247  1.00  0.00    -0.065 C 
ATOM      8  C7  UNK     1      -0.792  35.067 236.311  1.00  0.00    -0.012 C 
ATOM      9  C8  UNK     1      -1.175  33.930 237.220  1.00  0.00    -0.015 A 
ATOM     10  C9  UNK     1      -2.342  33.989 237.986  1.00  0.00     0.013 A 
ATOM     11  C10 UNK     1      -2.708  32.945 238.821  1.00  0.00     0.001 A 
ATOM     12  C11 UNK     1      -1.887  31.831 238.912  1.00  0.00     0.001 A 
ATOM     13  C12 UNK     1      -0.712  31.773 238.168  1.00  0.00     0.012 A 
ATOM     14  C13 UNK     1      -0.347  32.822 237.330  1.00  0.00    -0.025 A 
ATOM     15  C14 UNK     1       0.919  32.681 236.567  1.00  0.00     0.013 C 
ATOM     16  C15 UNK     1       1.792  33.653 236.290  1.00  0.00     0.013 C 
ATOM     17  C16 UNK     1       1.691  35.089 236.655  1.00  0.00    -0.025 A 
ATOM     18  C17 UNK     1       0.487  35.781 236.656  1.00  0.00    -0.015 A 
ATOM     19  C18 UNK     1       0.471  37.135 237.013  1.00  0.00     0.013 A 
ATOM     20  C19 UNK     1       1.648  37.800 237.330  1.00  0.00     0.001 A 
ATOM     21  C20 UNK     1       2.849  37.103 237.310  1.00  0.00     0.001 A 
ATOM     22  C21 UNK     1       2.870  35.756 236.969  1.00  0.00     0.012 A 
ENDROOT
TORSDOF 0
ENDMDL
MODEL 7
REMARK VINA RESULT:      -6.8      2.681      5.349
REMARK  0 active torsions:
REMARK  status: ('A' for Active; 'I' for Inactive)
ROOT
ATOM      1  N1  UNK     1       0.917  31.629 233.210  1.00  0.00     0.084 N 
ATOM      2  C1  UNK     1       1.640  31.875 235.516  1.00  0.00     0.065 C 
ATOM      3  C2  UNK     1       2.071  31.508 234.103  1.00  0.00     0.276 C 
ATOM      4  C3  UNK     1       1.231  31.012 231.913  1.00  0.00     0.309 C 
ATOM      5  C4  UNK     1       0.649  33.063 233.042  1.00  0.00     0.276 C 
ATOM      6  C5  UNK     1       0.147  33.633 234.372  1.00  0.00     0.065 C 
ATOM      7  C6  UNK     1       1.037  33.262 235.551  1.00  0.00    -0.065 C 
ATOM      8  C7  UNK     1       1.269  34.111 236.587  1.00  0.00    -0.012 C 
ATOM      9  C8  UNK     1       2.144  33.722 237.748  1.00  0.00    -0.015 A 
ATOM     10  C9  UNK     1       1.785  32.668 238.593  1.00  0.00     0.013 A 
ATOM     11  C10 UNK     1       2.587  32.296 239.660  1.00  0.00     0.001 A 
ATOM     12  C11 UNK     1       3.757  32.998 239.904  1.00  0.00     0.001 A 
ATOM     13  C12 UNK     1       4.112  34.063 239.081  1.00  0.00     0.012 A 
ATOM     14  C13 UNK     1       3.306  34.434 238.010  1.00  0.00    -0.025 A 
ATOM     15  C14 UNK     1       3.757  35.577 237.175  1.00  0.00     0.013 C 
ATOM     16  C15 UNK     1       2.981  36.509 236.617  1.00  0.00     0.013 C 
ATOM     17  C16 UNK     1       1.500  36.607 236.680  1.00  0.00    -0.025 A 
ATOM     18  C17 UNK     1       0.672  35.492 236.650  1.00  0.00    -0.015 A 
ATOM     19  C18 UNK     1      -0.716  35.663 236.714  1.00  0.00     0.013 A 
ATOM     20  C19 UNK     1      -1.273  36.934 236.768  1.00  0.00     0.001 A 
ATOM     21  C20 UNK     1      -0.437  38.043 236.781  1.00  0.00     0.001 A 
ATOM     22  C21 UNK     1       0.942  37.879 236.732  1.00  0.00     0.012 A 
ENDROOT
TORSDOF 0
ENDMDL
MODEL 8
REMARK VINA RESULT:      -6.7      2.418      6.007
REMARK  0 active torsions:
REMARK  status: ('A' for Active; 'I' for Inactive)
ROOT
ATOM      1  N1  UNK     1       0.601  32.388 232.138  1.00  0.00     0.084 N 
ATOM      2  C1  UNK     1       1.287  34.087 233.732  1.00  0.00     0.065 C 
ATOM      3  C2  UNK     1       0.717  33.832 232.344  1.00  0.00     0.276 C 
ATOM      4  C3  UNK     1       0.328  32.112 230.720  1.00  0.00     0.309 C 
ATOM      5  C4  UNK     1      -0.513  31.920 232.973  1.00  0.00     0.276 C 
ATOM      6  C5  UNK     1      -0.118  32.051 234.447  1.00  0.00     0.065 C 
ATOM      7  C6  UNK     1       0.433  33.428 234.793  1.00  0.00    -0.065 C 
ATOM      8  C7  UNK     1       0.194  34.032 235.988  1.00  0.00    -0.012 C 
ATOM      9  C8  UNK     1       0.757  35.388 236.315  1.00  0.00    -0.015 A 
ATOM     10  C9  UNK     1       2.137  35.588 236.404  1.00  0.00     0.013 A 
ATOM     11  C10 UNK     1       2.667  36.835 236.697  1.00  0.00     0.001 A 
ATOM     12  C11 UNK     1       1.807  37.898 236.927  1.00  0.00     0.001 A 
ATOM     13  C12 UNK     1       0.430  37.704 236.861  1.00  0.00     0.012 A 
ATOM     14  C13 UNK     1      -0.099  36.452 236.566  1.00  0.00    -0.025 A 
ATOM     15  C14 UNK     1      -1.578  36.328 236.509  1.00  0.00     0.013 C 
ATOM     16  C15 UNK     1      -2.304  35.285 236.918  1.00  0.00     0.013 C 
ATOM     17  C16 UNK     1      -1.808  34.010 237.497  1.00  0.00    -0.025 A 
ATOM     18  C17 UNK     1      -0.642  33.391 237.063  1.00  0.00    -0.015 A 
ATOM     19  C18 UNK     1      -0.237  32.191 237.658  1.00  0.00     0.013 A 
ATOM     20  C19 UNK     1      -1.007  31.594 238.648  1.00  0.00     0.001 A 
ATOM     21  C20 UNK     1      -2.180  32.212 239.063  1.00  0.00     0.001 A 
ATOM     22  C21 UNK     1      -2.580  33.410 238.487  1.00  0.00     0.012 A 
ENDROOT
TORSDOF 0
ENDMDL
MODEL 9
REMARK VINA RESULT:      -6.7      2.901      4.241
REMARK  0 active torsions:
REMARK  status: ('A' for Active; 'I' for Inactive)
ROOT
ATOM      1  N1  UNK     1      -3.114  32.208 236.969  1.00  0.00     0.084 N 
ATOM      2  C1  UNK     1      -1.756  34.221 237.028  1.00  0.00     0.065 C 
ATOM      3  C2  UNK     1      -1.821  32.745 237.395  1.00  0.00     0.276 C 
ATOM      4  C3  UNK     1      -3.315  30.877 237.560  1.00  0.00     0.309 C 
ATOM      5  C4  UNK     1      -3.083  32.117 235.503  1.00  0.00     0.276 C 
ATOM      6  C5  UNK     1      -3.061  33.532 234.918  1.00  0.00     0.065 C 
ATOM      7  C6  UNK     1      -1.993  34.418 235.547  1.00  0.00    -0.065 C 
ATOM      8  C7  UNK     1      -1.301  35.346 234.835  1.00  0.00    -0.012 C 
ATOM      9  C8  UNK     1      -0.256  36.218 235.477  1.00  0.00    -0.015 A 
ATOM     10  C9  UNK     1      -0.603  37.133 236.475  1.00  0.00     0.013 A 
ATOM     11  C10 UNK     1       0.351  37.936 237.079  1.00  0.00     0.001 A 
ATOM     12  C11 UNK     1       1.672  37.843 236.667  1.00  0.00     0.001 A 
ATOM     13  C12 UNK     1       2.024  36.950 235.659  1.00  0.00     0.012 A 
ATOM     14  C13 UNK     1       1.064  36.144 235.056  1.00  0.00    -0.025 A 
ATOM     15  C14 UNK     1       1.520  35.214 233.991  1.00  0.00     0.013 C 
ATOM     16  C15 UNK     1       0.855  34.891 232.879  1.00  0.00     0.013 C 
ATOM     17  C16 UNK     1      -0.490  35.363 232.462  1.00  0.00    -0.025 A 
ATOM     18  C17 UNK     1      -1.527  35.568 233.363  1.00  0.00    -0.015 A 
ATOM     19  C18 UNK     1      -2.768  36.015 232.895  1.00  0.00     0.013 A 
ATOM     20  C19 UNK     1      -2.984  36.219 231.538  1.00  0.00     0.001 A 
ATOM     21  C20 UNK     1      -1.945  35.995 230.643  1.00  0.00     0.001 A 
ATOM     22  C21 UNK     1      -0.707  35.565 231.103  1.00  0.00     0.012 A 
ENDROOT
TORSDOF 0
ENDMDL
