MODEL 1
REMARK VINA RESULT:      -8.5      0.000      0.000
REMARK  1 active torsions:
REMARK  status: ('A' for Active; 'I' for Inactive)
REMARK    1  A    between atoms: C5_8  and  N2_9 
ROOT
ATOM      1  N2  UNK     1      -0.428  40.559 227.616  1.00  0.00    -0.266 N 
ATOM      2  C6  UNK     1      -4.577  39.245 225.874  1.00  0.00     0.001 A 
ATOM      3  C7  UNK     1      -3.589  38.781 226.771  1.00  0.00     0.018 A 
ATOM      4  C8  UNK     1      -2.454  39.592 226.926  1.00  0.00     0.048 A 
ATOM      5  C9  UNK     1      -2.305  40.800 226.222  1.00  0.00     0.048 A 
ATOM      6  O3  UNK     1      -1.022  38.486 228.538  1.00  0.00    -0.267 OA
ATOM      7  O4  UNK     1      -0.499  42.385 226.210  1.00  0.00    -0.267 OA
ATOM      8  C10 UNK     1      -3.281  41.245 225.312  1.00  0.00     0.018 A 
ATOM      9  C11 UNK     1      -4.425  40.440 225.140  1.00  0.00     0.001 A 
ATOM     10  C12 UNK     1      -0.982  41.368 226.679  1.00  0.00     0.262 A 
ATOM     11  C13 UNK     1      -1.226  39.465 227.809  1.00  0.00     0.262 A 
ENDROOT
BRANCH   1  12
ATOM     12  C5  UNK     1       0.891  40.779 228.188  1.00  0.00     0.189 C 
ATOM     13  C1  UNK     1       0.952  42.048 229.005  1.00  0.00     0.247 C 
ATOM     14  O1  UNK     1      -0.067  42.475 229.530  1.00  0.00    -0.271 OA
ATOM     15  N1  UNK     1       2.163  42.636 229.179  1.00  0.00    -0.296 N 
ATOM     16  C2  UNK     1       3.328  42.197 228.646  1.00  0.00     0.224 C 
ATOM     17  H1  UNK     1       2.198  43.459 229.746  1.00  0.00     0.171 HD
ATOM     18  O2  UNK     1       4.360  42.794 228.857  1.00  0.00    -0.273 OA
ATOM     19  C3  UNK     1       3.367  40.951 227.796  1.00  0.00     0.106 C 
ATOM     20  C4  UNK     1       1.994  40.749 227.107  1.00  0.00     0.045 C 
ENDBRANCH   1  12
TORSDOF 1
ENDMDL
MODEL 2
REMARK VINA RESULT:      -8.5      0.144      2.007
REMARK  1 active torsions:
REMARK  status: ('A' for Active; 'I' for Inactive)
REMARK    1  A    between atoms: C5_8  and  N2_9 
ROOT
ATOM      1  N2  UNK     1      -0.308  40.468 227.455  1.00  0.00    -0.266 N 
ATOM      2  C6  UNK     1      -4.456  40.286 225.279  1.00  0.00     0.001 A 
ATOM      3  C7  UNK     1      -3.320  41.122 225.366  1.00  0.00     0.018 A 
ATOM      4  C8  UNK     1      -2.302  40.707 226.239  1.00  0.00     0.048 A 
ATOM      5  C9  UNK     1      -2.410  39.524 226.992  1.00  0.00     0.048 A 
ATOM      6  O3  UNK     1      -0.540  42.364 226.095  1.00  0.00    -0.267 OA
ATOM      7  O4  UNK     1      -0.904  38.553 228.593  1.00  0.00    -0.267 OA
ATOM      8  C10 UNK     1      -3.553  38.708 226.921  1.00  0.00     0.018 A 
ATOM      9  C11 UNK     1      -4.587  39.114 226.053  1.00  0.00     0.001 A 
ATOM     10  C12 UNK     1      -1.119  39.428 227.772  1.00  0.00     0.262 A 
ATOM     11  C13 UNK     1      -0.940  41.291 226.564  1.00  0.00     0.262 A 
ENDROOT
BRANCH   1  12
ATOM     12  C5  UNK     1       0.971  40.715 228.104  1.00  0.00     0.189 C 
ATOM     13  C1  UNK     1       0.953  41.977 228.934  1.00  0.00     0.247 C 
ATOM     14  O1  UNK     1      -0.106  42.372 229.404  1.00  0.00    -0.271 OA
ATOM     15  N1  UNK     1       2.136  42.594 229.182  1.00  0.00    -0.296 N 
ATOM     16  C2  UNK     1       3.340  42.190 228.712  1.00  0.00     0.224 C 
ATOM     17  H1  UNK     1       2.117  43.411 229.757  1.00  0.00     0.171 HD
ATOM     18  O2  UNK     1       4.342  42.810 228.988  1.00  0.00    -0.273 OA
ATOM     19  C3  UNK     1       3.460  40.953 227.855  1.00  0.00     0.106 C 
ATOM     20  C4  UNK     1       2.134  40.724 227.087  1.00  0.00     0.045 C 
ENDBRANCH   1  12
TORSDOF 1
ENDMDL
MODEL 3
REMARK VINA RESULT:      -7.0     10.295     12.026
REMARK  1 active torsions:
REMARK  status: ('A' for Active; 'I' for Inactive)
REMARK    1  A    between atoms: C5_8  and  N2_9 
ROOT
ATOM      1  N2  UNK     1       1.651  34.507 235.772  1.00  0.00    -0.266 N 
ATOM      2  C6  UNK     1       4.611  30.874 235.656  1.00  0.00     0.001 A 
ATOM      3  C7  UNK     1       3.618  31.481 234.855  1.00  0.00     0.018 A 
ATOM      4  C8  UNK     1       2.971  32.600 235.402  1.00  0.00     0.048 A 
ATOM      5  C9  UNK     1       3.291  33.089 236.681  1.00  0.00     0.048 A 
ATOM      6  O3  UNK     1       1.376  33.362 233.745  1.00  0.00    -0.267 OA
ATOM      7  O4  UNK     1       2.365  34.924 237.925  1.00  0.00    -0.267 OA
ATOM      8  C10 UNK     1       4.264  32.467 237.484  1.00  0.00     0.018 A 
ATOM      9  C11 UNK     1       4.919  31.338 236.952  1.00  0.00     0.001 A 
ATOM     10  C12 UNK     1       2.403  34.294 236.882  1.00  0.00     0.262 A 
ATOM     11  C13 UNK     1       1.909  33.532 234.848  1.00  0.00     0.262 A 
ENDROOT
BRANCH   1  12
ATOM     12  C5  UNK     1       0.626  35.536 235.682  1.00  0.00     0.189 C 
ATOM     13  C1  UNK     1       1.215  36.927 235.670  1.00  0.00     0.247 C 
ATOM     14  O1  UNK     1       2.350  37.096 235.244  1.00  0.00    -0.271 OA
ATOM     15  N1  UNK     1       0.429  37.955 236.079  1.00  0.00    -0.296 N 
ATOM     16  C2  UNK     1      -0.839  37.833 236.536  1.00  0.00     0.224 C 
ATOM     17  H1  UNK     1       0.818  38.875 236.039  1.00  0.00     0.171 HD
ATOM     18  O2  UNK     1      -1.461  38.813 236.881  1.00  0.00    -0.273 OA
ATOM     19  C3  UNK     1      -1.509  36.483 236.608  1.00  0.00     0.106 C 
ATOM     20  C4  UNK     1      -0.436  35.381 236.793  1.00  0.00     0.045 C 
ENDBRANCH   1  12
TORSDOF 1
ENDMDL
MODEL 4
REMARK VINA RESULT:      -7.0     10.459     12.159
REMARK  1 active torsions:
REMARK  status: ('A' for Active; 'I' for Inactive)
REMARK    1  A    between atoms: C5_8  and  N2_9 
ROOT
ATOM      1  N2  UNK     1       1.634  34.369 236.038  1.00  0.00    -0.266 N 
ATOM      2  C6  UNK     1       4.987  31.269 237.096  1.00  0.00     0.001 A 
ATOM      3  C7  UNK     1       4.316  32.370 237.673  1.00  0.00     0.018 A 
ATOM      4  C8  UNK     1       3.355  33.007 236.873  1.00  0.00     0.048 A 
ATOM      5  C9  UNK     1       3.078  32.576 235.563  1.00  0.00     0.048 A 
ATOM      6  O3  UNK     1       2.421  34.805 238.203  1.00  0.00    -0.267 OA
ATOM      7  O4  UNK     1       1.555  33.451 233.924  1.00  0.00    -0.267 OA
ATOM      8  C10 UNK     1       3.766  31.495 234.984  1.00  0.00     0.018 A 
ATOM      9  C11 UNK     1       4.739  30.847 235.773  1.00  0.00     0.001 A 
ATOM     10  C12 UNK     1       1.988  33.495 235.063  1.00  0.00     0.262 A 
ATOM     11  C13 UNK     1       2.412  34.165 237.144  1.00  0.00     0.262 A 
ENDROOT
BRANCH   1  12
ATOM     12  C5  UNK     1       0.676  35.446 235.841  1.00  0.00     0.189 C 
ATOM     13  C1  UNK     1       1.326  36.808 235.918  1.00  0.00     0.247 C 
ATOM     14  O1  UNK     1       2.510  36.926 235.630  1.00  0.00    -0.271 OA
ATOM     15  N1  UNK     1       0.546  37.869 236.245  1.00  0.00    -0.296 N 
ATOM     16  C2  UNK     1      -0.772  37.804 236.547  1.00  0.00     0.224 C 
ATOM     17  H1  UNK     1       0.979  38.770 236.264  1.00  0.00     0.171 HD
ATOM     18  O2  UNK     1      -1.384  38.810 236.829  1.00  0.00    -0.273 OA
ATOM     19  C3  UNK     1      -1.508  36.487 236.521  1.00  0.00     0.106 C 
ATOM     20  C4  UNK     1      -0.517  35.333 236.817  1.00  0.00     0.045 C 
ENDBRANCH   1  12
TORSDOF 1
ENDMDL
MODEL 5
REMARK VINA RESULT:      -6.7      8.863      9.796
REMARK  1 active torsions:
REMARK  status: ('A' for Active; 'I' for Inactive)
REMARK    1  A    between atoms: C5_8  and  N2_9 
ROOT
ATOM      1  N2  UNK     1       0.619  35.696 235.732  1.00  0.00    -0.266 N 
ATOM      2  C6  UNK     1      -2.593  36.006 232.333  1.00  0.00     0.001 A 
ATOM      3  C7  UNK     1      -1.255  36.381 232.588  1.00  0.00     0.018 A 
ATOM      4  C8  UNK     1      -0.744  36.053 233.854  1.00  0.00     0.048 A 
ATOM      5  C9  UNK     1      -1.525  35.390 234.819  1.00  0.00     0.048 A 
ATOM      6  O3  UNK     1       1.551  36.828 233.902  1.00  0.00    -0.267 OA
ATOM      7  O4  UNK     1      -0.993  34.728 237.066  1.00  0.00    -0.267 OA
ATOM      8  C10 UNK     1      -2.864  35.041 234.568  1.00  0.00     0.018 A 
ATOM      9  C11 UNK     1      -3.394  35.369 233.303  1.00  0.00     0.001 A 
ATOM     10  C12 UNK     1      -0.615  35.207 236.011  1.00  0.00     0.262 A 
ATOM     11  C13 UNK     1       0.627  36.238 234.477  1.00  0.00     0.262 A 
ENDROOT
BRANCH   1  12
ATOM     12  C5  UNK     1       1.699  35.754 236.706  1.00  0.00     0.189 C 
ATOM     13  C1  UNK     1       1.880  37.143 237.272  1.00  0.00     0.247 C 
ATOM     14  O1  UNK     1       0.924  37.907 237.308  1.00  0.00    -0.271 OA
ATOM     15  N1  UNK     1       3.094  37.470 237.781  1.00  0.00    -0.296 N 
ATOM     16  C2  UNK     1       4.180  36.660 237.792  1.00  0.00     0.224 C 
ATOM     17  H1  UNK     1       3.196  38.382 238.180  1.00  0.00     0.171 HD
ATOM     18  O2  UNK     1       5.224  37.045 238.270  1.00  0.00    -0.273 OA
ATOM     19  C3  UNK     1       4.106  35.262 237.230  1.00  0.00     0.106 C 
ATOM     20  C4  UNK     1       3.020  35.203 236.127  1.00  0.00     0.045 C 
ENDBRANCH   1  12
TORSDOF 1
ENDMDL
MODEL 6
REMARK VINA RESULT:      -6.6      8.798      9.558
REMARK  1 active torsions:
REMARK  status: ('A' for Active; 'I' for Inactive)
REMARK    1  A    between atoms: C5_8  and  N2_9 
ROOT
ATOM      1  N2  UNK     1       0.410  35.809 235.767  1.00  0.00    -0.266 N 
ATOM      2  C6  UNK     1      -3.497  35.303 233.227  1.00  0.00     0.001 A 
ATOM      3  C7  UNK     1      -2.985  34.957 234.498  1.00  0.00     0.018 A 
ATOM      4  C8  UNK     1      -1.665  35.349 234.769  1.00  0.00     0.048 A 
ATOM      5  C9  UNK     1      -0.890  36.045 233.823  1.00  0.00     0.048 A 
ATOM      6  O3  UNK     1      -1.165  34.607 237.021  1.00  0.00    -0.267 OA
ATOM      7  O4  UNK     1       1.383  36.815 233.935  1.00  0.00    -0.267 OA
ATOM      8  C10 UNK     1      -1.396  36.365 232.551  1.00  0.00     0.018 A 
ATOM      9  C11 UNK     1      -2.719  35.974 232.260  1.00  0.00     0.001 A 
ATOM     10  C12 UNK     1       0.437  36.294 234.501  1.00  0.00     0.262 A 
ATOM     11  C13 UNK     1      -0.796  35.210 236.005  1.00  0.00     0.262 A 
ENDROOT
BRANCH   1  12
ATOM     12  C5  UNK     1       1.566  35.809 236.651  1.00  0.00     0.189 C 
ATOM     13  C1  UNK     1       1.776  37.151 237.313  1.00  0.00     0.247 C 
ATOM     14  O1  UNK     1       0.817  37.890 237.490  1.00  0.00    -0.271 OA
ATOM     15  N1  UNK     1       3.024  37.459 237.747  1.00  0.00    -0.296 N 
ATOM     16  C2  UNK     1       4.117  36.672 237.602  1.00  0.00     0.224 C 
ATOM     17  H1  UNK     1       3.147  38.336 238.210  1.00  0.00     0.171 HD
ATOM     18  O2  UNK     1       5.192  37.036 238.023  1.00  0.00    -0.273 OA
ATOM     19  C3  UNK     1       4.015  35.322 236.935  1.00  0.00     0.106 C 
ATOM     20  C4  UNK     1       2.842  35.332 235.922  1.00  0.00     0.045 C 
ENDBRANCH   1  12
TORSDOF 1
ENDMDL
MODEL 7
REMARK VINA RESULT:      -6.5      9.873     12.179
REMARK  1 active torsions:
REMARK  status: ('A' for Active; 'I' for Inactive)
REMARK    1  A    between atoms: C5_8  and  N2_9 
ROOT
ATOM      1  N2  UNK     1       1.365  35.568 236.689  1.00  0.00    -0.266 N 
ATOM      2  C6  UNK     1       4.726  36.464 239.831  1.00  0.00     0.001 A 
ATOM      3  C7  UNK     1       3.863  37.154 238.950  1.00  0.00     0.018 A 
ATOM      4  C8  UNK     1       3.015  36.363 238.159  1.00  0.00     0.048 A 
ATOM      5  C9  UNK     1       3.027  34.959 238.235  1.00  0.00     0.048 A 
ATOM      6  O3  UNK     1       1.691  37.887 236.818  1.00  0.00    -0.267 OA
ATOM      7  O4  UNK     1       1.765  33.321 237.012  1.00  0.00    -0.267 OA
ATOM      8  C10 UNK     1       3.906  34.277 239.096  1.00  0.00     0.018 A 
ATOM      9  C11 UNK     1       4.768  35.056 239.893  1.00  0.00     0.001 A 
ATOM     10  C12 UNK     1       1.972  34.497 237.258  1.00  0.00     0.262 A 
ATOM     11  C13 UNK     1       1.938  36.721 237.152  1.00  0.00     0.262 A 
ENDROOT
BRANCH   1  12
ATOM     12  C5  UNK     1       0.367  35.460 235.635  1.00  0.00     0.189 C 
ATOM     13  C1  UNK     1       0.867  36.013 234.321  1.00  0.00     0.247 C 
ATOM     14  O1  UNK     1       2.068  36.014 234.086  1.00  0.00    -0.271 OA
ATOM     15  N1  UNK     1      -0.053  36.433 233.416  1.00  0.00    -0.296 N 
ATOM     16  C2  UNK     1      -1.394  36.433 233.608  1.00  0.00     0.224 C 
ATOM     17  H1  UNK     1       0.286  36.769 232.537  1.00  0.00     0.171 HD
ATOM     18  O2  UNK     1      -2.136  36.830 232.738  1.00  0.00    -0.273 OA
ATOM     19  C3  UNK     1      -1.990  35.921 234.897  1.00  0.00     0.106 C 
ATOM     20  C4  UNK     1      -0.972  36.110 236.049  1.00  0.00     0.045 C 
ENDBRANCH   1  12
TORSDOF 1
ENDMDL
MODEL 8
REMARK VINA RESULT:      -6.3      8.494     11.021
REMARK  1 active torsions:
REMARK  status: ('A' for Active; 'I' for Inactive)
REMARK    1  A    between atoms: C5_8  and  N2_9 
ROOT
ATOM      1  N2  UNK     1      -0.082  36.397 235.333  1.00  0.00    -0.266 N 
ATOM      2  C6  UNK     1       3.961  36.981 237.633  1.00  0.00     0.001 A 
ATOM      3  C7  UNK     1       2.700  37.603 237.495  1.00  0.00     0.018 A 
ATOM      4  C8  UNK     1       1.799  37.001 236.602  1.00  0.00     0.048 A 
ATOM      5  C9  UNK     1       2.136  35.844 235.878  1.00  0.00     0.048 A 
ATOM      6  O3  UNK     1      -0.229  38.326 236.658  1.00  0.00    -0.267 OA
ATOM      7  O4  UNK     1       0.876  34.598 234.255  1.00  0.00    -0.267 OA
ATOM      8  C10 UNK     1       3.402  35.242 236.000  1.00  0.00     0.018 A 
ATOM      9  C11 UNK     1       4.320  35.837 236.889  1.00  0.00     0.001 A 
ATOM     10  C12 UNK     1       0.908  35.511 235.063  1.00  0.00     0.262 A 
ATOM     11  C13 UNK     1       0.368  37.333 236.224  1.00  0.00     0.262 A 
ENDROOT
BRANCH   1  12
ATOM     12  C5  UNK     1      -1.363  36.406 234.642  1.00  0.00     0.189 C 
ATOM     13  C1  UNK     1      -2.299  35.342 235.165  1.00  0.00     0.247 C 
ATOM     14  O1  UNK     1      -2.183  34.954 236.320  1.00  0.00    -0.271 OA
ATOM     15  N1  UNK     1      -3.285  34.901 234.343  1.00  0.00    -0.296 N 
ATOM     16  C2  UNK     1      -3.479  35.311 233.068  1.00  0.00     0.224 C 
ATOM     17  H1  UNK     1      -3.918  34.219 234.709  1.00  0.00     0.171 HD
ATOM     18  O2  UNK     1      -4.389  34.855 232.411  1.00  0.00    -0.273 OA
ATOM     19  C3  UNK     1      -2.582  36.354 232.446  1.00  0.00     0.106 C 
ATOM     20  C4  UNK     1      -1.184  36.299 233.111  1.00  0.00     0.045 C 
ENDBRANCH   1  12
TORSDOF 1
ENDMDL
MODEL 9
REMARK VINA RESULT:      -6.2     11.838     13.050
REMARK  1 active torsions:
REMARK  status: ('A' for Active; 'I' for Inactive)
REMARK    1  A    between atoms: C5_8  and  N2_9 
ROOT
ATOM      1  N2  UNK     1       2.139  33.950 237.401  1.00  0.00    -0.266 N 
ATOM      2  C6  UNK     1      -0.060  38.048 236.816  1.00  0.00     0.001 A 
ATOM      3  C7  UNK     1       1.206  37.549 237.194  1.00  0.00     0.018 A 
ATOM      4  C8  UNK     1       1.341  36.153 237.238  1.00  0.00     0.048 A 
ATOM      5  C9  UNK     1       0.271  35.295 236.927  1.00  0.00     0.048 A 
ATOM      6  O3  UNK     1       3.628  35.693 237.896  1.00  0.00    -0.267 OA
ATOM      7  O4  UNK     1       0.140  32.896 236.944  1.00  0.00    -0.267 OA
ATOM      8  C10 UNK     1      -0.995  35.797 236.574  1.00  0.00     0.018 A 
ATOM      9  C11 UNK     1      -1.149  37.198 236.531  1.00  0.00     0.001 A 
ATOM     10  C12 UNK     1       0.825  33.897 237.070  1.00  0.00     0.262 A 
ATOM     11  C13 UNK     1       2.525  35.254 237.544  1.00  0.00     0.262 A 
ENDROOT
BRANCH   1  12
ATOM     12  C5  UNK     1       2.939  32.773 237.703  1.00  0.00     0.189 C 
ATOM     13  C1  UNK     1       3.300  32.691 239.168  1.00  0.00     0.247 C 
ATOM     14  O1  UNK     1       2.568  33.214 239.998  1.00  0.00    -0.271 OA
ATOM     15  N1  UNK     1       4.401  31.976 239.514  1.00  0.00    -0.296 N 
ATOM     16  C2  UNK     1       5.232  31.355 238.645  1.00  0.00     0.224 C 
ATOM     17  H1  UNK     1       4.614  31.903 240.488  1.00  0.00     0.171 HD
ATOM     18  O2  UNK     1       6.194  30.741 239.051  1.00  0.00    -0.273 OA
ATOM     19  C3  UNK     1       4.970  31.398 237.159  1.00  0.00     0.106 C 
ATOM     20  C4  UNK     1       4.194  32.691 236.806  1.00  0.00     0.045 C 
ENDBRANCH   1  12
TORSDOF 1
ENDMDL
