MODEL 1
REMARK VINA RESULT:      -5.5      0.000      0.000
REMARK  8 active torsions:
REMARK  status: ('A' for Active; 'I' for Inactive)
REMARK    1  A    between atoms: C3_6  and  N2_13 
REMARK    2  A    between atoms: C10_15  and  N2_13 
REMARK    3  A    between atoms: C10_15  and  C11_16 
REMARK    4  A    between atoms: C11_16  and  C12_17 
REMARK    5  A    between atoms: C12_17  and  C13_18 
REMARK    6  A    between atoms: C13_18  and  N3_19 
REMARK    7  A    between atoms: C14_20  and  N3_19 
REMARK    8  A    between atoms: C16_22  and  N3_19 
ROOT
HETATM    1 CL   CLQ  2534      -1.813  38.709 237.186  1.00 20.00    -0.084 Cl
HETATM    2  N1  CLQ  2534       3.093  37.185 237.498  1.00 20.00    -0.365 N 
ATOM      3  H1  CLQ  2534       3.243  37.987 238.109  1.00  0.00     0.165 HD
HETATM    4  C1  CLQ  2534       4.135  36.379 237.207  1.00 20.00     0.090 A 
HETATM    5  C2  CLQ  2534       3.993  35.278 236.372  1.00 20.00     0.047 A 
HETATM    6  C3  CLQ  2534       2.698  34.923 235.792  1.00 20.00     0.042 A 
HETATM    7  C4  CLQ  2534       1.547  35.793 236.113  1.00 20.00     0.017 A 
HETATM    8  C5  CLQ  2534       0.184  35.610 235.615  1.00 20.00     0.018 A 
HETATM    9  C6  CLQ  2534      -0.846  36.496 235.955  1.00 20.00     0.025 A 
HETATM   10  C7  CLQ  2534      -0.550  37.612 236.804  1.00 20.00     0.036 A 
HETATM   11  C8  CLQ  2534       0.739  37.841 237.312  1.00 20.00     0.054 A 
HETATM   12  C9  CLQ  2534       1.795  36.950 236.979  1.00 20.00     0.046 A 
ENDROOT
BRANCH   6  13
HETATM   13  N2  CLQ  2534       2.527  33.843 234.970  1.00 20.00    -0.385 N 
ATOM     14  H2  CLQ  2534       2.598  34.024 233.969  1.00  0.00     0.160 HD
BRANCH  13  15
HETATM   15  C10 CLQ  2534       2.247  32.422 235.367  1.00 20.00     0.077 C 
HETATM   16  C18 CLQ  2534       3.523  31.595 235.306  1.00 20.00     0.032 C 
BRANCH  15  17
HETATM   17  C11 CLQ  2534       1.119  31.857 234.492  1.00 20.00     0.026 C 
BRANCH  17  18
HETATM   18  C12 CLQ  2534       1.003  32.414 233.085  1.00 20.00     0.032 C 
BRANCH  18  19
HETATM   19  C13 CLQ  2534      -0.395  32.968 232.867  1.00 20.00     0.272 C 
BRANCH  19  20
HETATM   20  N3  CLQ  2534      -0.427  34.229 232.050  1.00 20.00     0.087 N 
BRANCH  20  21
HETATM   21  C14 CLQ  2534      -1.594  35.162 232.440  1.00 20.00     0.268 C 
HETATM   22  C15 CLQ  2534      -1.423  36.660 232.210  1.00 20.00     0.037 C 
ENDBRANCH  20  21
BRANCH  20  23
HETATM   23  C16 CLQ  2534       0.927  34.860 231.880  1.00 20.00     0.268 C 
HETATM   24  C17 CLQ  2534       1.415  34.946 230.472  1.00 20.00     0.037 C 
ENDBRANCH  20  23
ENDBRANCH  19  20
ENDBRANCH  18  19
ENDBRANCH  17  18
ENDBRANCH  15  17
ENDBRANCH  13  15
ENDBRANCH   6  13
TORSDOF 8
ENDMDL
MODEL 2
REMARK VINA RESULT:      -5.5      3.328      5.451
REMARK  8 active torsions:
REMARK  status: ('A' for Active; 'I' for Inactive)
REMARK    1  A    between atoms: C3_6  and  N2_13 
REMARK    2  A    between atoms: C10_15  and  N2_13 
REMARK    3  A    between atoms: C10_15  and  C11_16 
REMARK    4  A    between atoms: C11_16  and  C12_17 
REMARK    5  A    between atoms: C12_17  and  C13_18 
REMARK    6  A    between atoms: C13_18  and  N3_19 
REMARK    7  A    between atoms: C14_20  and  N3_19 
REMARK    8  A    between atoms: C16_22  and  N3_19 
ROOT
HETATM    1 CL   CLQ  2534       3.954  31.231 235.263  1.00 20.00    -0.084 Cl
HETATM    2  N1  CLQ  2534       3.918  36.031 237.120  1.00 20.00    -0.365 N 
ATOM      3  H1  CLQ  2534       4.805  35.802 237.569  1.00  0.00     0.165 HD
HETATM    4  C1  CLQ  2534       3.392  37.261 237.297  1.00 20.00     0.090 A 
HETATM    5  C2  CLQ  2534       2.183  37.626 236.718  1.00 20.00     0.047 A 
HETATM    6  C3  CLQ  2534       1.437  36.702 235.865  1.00 20.00     0.042 A 
HETATM    7  C4  CLQ  2534       2.009  35.355 235.656  1.00 20.00     0.017 A 
HETATM    8  C5  CLQ  2534       1.402  34.294 234.853  1.00 20.00     0.018 A 
HETATM    9  C6  CLQ  2534       2.005  33.036 234.723  1.00 20.00     0.025 A 
HETATM   10  C7  CLQ  2534       3.242  32.787 235.403  1.00 20.00     0.036 A 
HETATM   11  C8  CLQ  2534       3.872  33.765 236.189  1.00 20.00     0.054 A 
HETATM   12  C9  CLQ  2534       3.274  35.047 236.328  1.00 20.00     0.046 A 
ENDROOT
BRANCH   6  13
HETATM   13  N2  CLQ  2534       0.246  37.034 235.280  1.00 20.00    -0.385 N 
ATOM     14  H2  CLQ  2534       0.281  37.262 234.286  1.00  0.00     0.160 HD
BRANCH  13  15
HETATM   15  C10 CLQ  2534      -1.107  37.105 235.927  1.00 20.00     0.077 C 
HETATM   16  C18 CLQ  2534      -1.189  38.312 236.850  1.00 20.00     0.032 C 
BRANCH  15  17
HETATM   17  C11 CLQ  2534      -1.405  35.777 236.641  1.00 20.00     0.026 C 
BRANCH  17  18
HETATM   18  C12 CLQ  2534      -2.399  34.849 235.968  1.00 20.00     0.032 C 
BRANCH  18  19
HETATM   19  C13 CLQ  2534      -2.047  33.405 236.288  1.00 20.00     0.272 C 
BRANCH  19  20
HETATM   20  N3  CLQ  2534      -1.518  33.206 237.682  1.00 20.00     0.087 N 
BRANCH  20  21
HETATM   21  C14 CLQ  2534      -2.643  33.105 238.735  1.00 20.00     0.268 C 
HETATM   22  C15 CLQ  2534      -3.498  31.841 238.752  1.00 20.00     0.037 C 
ENDBRANCH  20  21
BRANCH  20  23
HETATM   23  C16 CLQ  2534      -0.414  32.188 237.758  1.00 20.00     0.268 C 
HETATM   24  C17 CLQ  2534       0.893  32.707 238.257  1.00 20.00     0.037 C 
ENDBRANCH  20  23
ENDBRANCH  19  20
ENDBRANCH  18  19
ENDBRANCH  17  18
ENDBRANCH  15  17
ENDBRANCH  13  15
ENDBRANCH   6  13
TORSDOF 8
ENDMDL
MODEL 3
REMARK VINA RESULT:      -5.5      2.412      4.999
REMARK  8 active torsions:
REMARK  status: ('A' for Active; 'I' for Inactive)
REMARK    1  A    between atoms: C3_6  and  N2_13 
REMARK    2  A    between atoms: C10_15  and  N2_13 
REMARK    3  A    between atoms: C10_15  and  C11_16 
REMARK    4  A    between atoms: C11_16  and  C12_17 
REMARK    5  A    between atoms: C12_17  and  C13_18 
REMARK    6  A    between atoms: C13_18  and  N3_19 
REMARK    7  A    between atoms: C14_20  and  N3_19 
REMARK    8  A    between atoms: C16_22  and  N3_19 
ROOT
HETATM    1 CL   CLQ  2534      -0.866  34.673 231.010  1.00 20.00    -0.084 Cl
HETATM    2  N1  CLQ  2534      -1.363  37.202 235.465  1.00 20.00    -0.365 N 
ATOM      3  H1  CLQ  2534      -2.367  37.201 235.287  1.00  0.00     0.165 HD
HETATM    4  C1  CLQ  2534      -0.896  37.794 236.584  1.00 20.00     0.090 A 
HETATM    5  C2  CLQ  2534       0.462  37.836 236.874  1.00 20.00     0.047 A 
HETATM    6  C3  CLQ  2534       1.449  37.213 235.992  1.00 20.00     0.042 A 
HETATM    7  C4  CLQ  2534       0.948  36.553 234.768  1.00 20.00     0.017 A 
HETATM    8  C5  CLQ  2534       1.780  35.894 233.762  1.00 20.00     0.018 A 
HETATM    9  C6  CLQ  2534       1.222  35.307 232.618  1.00 20.00     0.025 A 
HETATM   10  C7  CLQ  2534      -0.198  35.366 232.431  1.00 20.00     0.036 A 
HETATM   11  C8  CLQ  2534      -1.048  35.985 233.361  1.00 20.00     0.054 A 
HETATM   12  C9  CLQ  2534      -0.498  36.582 234.529  1.00 20.00     0.046 A 
ENDROOT
BRANCH   6  13
HETATM   13  N2  CLQ  2534       2.792  37.236 236.253  1.00 20.00    -0.385 N 
ATOM     14  H2  CLQ  2534       3.333  37.948 235.762  1.00  0.00     0.160 HD
BRANCH  13  15
HETATM   15  C10 CLQ  2534       3.563  36.336 237.175  1.00 20.00     0.077 C 
HETATM   16  C18 CLQ  2534       4.444  37.159 238.102  1.00 20.00     0.032 C 
BRANCH  15  17
HETATM   17  C11 CLQ  2534       4.350  35.307 236.349  1.00 20.00     0.026 C 
BRANCH  17  18
HETATM   18  C12 CLQ  2534       3.689  33.958 236.130  1.00 20.00     0.032 C 
BRANCH  18  19
HETATM   19  C13 CLQ  2534       3.074  33.475 237.433  1.00 20.00     0.272 C 
BRANCH  19  20
HETATM   20  N3  CLQ  2534       1.970  32.471 237.245  1.00 20.00     0.087 N 
BRANCH  20  21
HETATM   21  C14 CLQ  2534       0.644  32.916 237.902  1.00 20.00     0.268 C 
HETATM   22  C15 CLQ  2534      -0.168  34.005 237.209  1.00 20.00     0.037 C 
ENDBRANCH  20  21
BRANCH  20  23
HETATM   23  C16 CLQ  2534       1.893  31.928 235.846  1.00 20.00     0.268 C 
HETATM   24  C17 CLQ  2534       2.389  30.529 235.681  1.00 20.00     0.037 C 
ENDBRANCH  20  23
ENDBRANCH  19  20
ENDBRANCH  18  19
ENDBRANCH  17  18
ENDBRANCH  15  17
ENDBRANCH  13  15
ENDBRANCH   6  13
TORSDOF 8
ENDMDL
MODEL 4
REMARK VINA RESULT:      -5.4      2.915      4.830
REMARK  8 active torsions:
REMARK  status: ('A' for Active; 'I' for Inactive)
REMARK    1  A    between atoms: C3_6  and  N2_13 
REMARK    2  A    between atoms: C10_15  and  N2_13 
REMARK    3  A    between atoms: C10_15  and  C11_16 
REMARK    4  A    between atoms: C11_16  and  C12_17 
REMARK    5  A    between atoms: C12_17  and  C13_18 
REMARK    6  A    between atoms: C13_18  and  N3_19 
REMARK    7  A    between atoms: C14_20  and  N3_19 
REMARK    8  A    between atoms: C16_22  and  N3_19 
ROOT
HETATM    1 CL   CLQ  2534       3.885  31.249 235.257  1.00 20.00    -0.084 Cl
HETATM    2  N1  CLQ  2534       3.916  36.040 237.139  1.00 20.00    -0.365 N 
ATOM      3  H1  CLQ  2534       4.795  35.793 237.594  1.00  0.00     0.165 HD
HETATM    4  C1  CLQ  2534       3.410  37.277 237.318  1.00 20.00     0.090 A 
HETATM    5  C2  CLQ  2534       2.212  37.666 236.732  1.00 20.00     0.047 A 
HETATM    6  C3  CLQ  2534       1.457  36.759 235.868  1.00 20.00     0.042 A 
HETATM    7  C4  CLQ  2534       2.007  35.404 235.656  1.00 20.00     0.017 A 
HETATM    8  C5  CLQ  2534       1.389  34.358 234.842  1.00 20.00     0.018 A 
HETATM    9  C6  CLQ  2534       1.972  33.090 234.711  1.00 20.00     0.025 A 
HETATM   10  C7  CLQ  2534       3.198  32.816 235.399  1.00 20.00     0.036 A 
HETATM   11  C8  CLQ  2534       3.839  33.779 236.195  1.00 20.00     0.054 A 
HETATM   12  C9  CLQ  2534       3.262  35.071 236.337  1.00 20.00     0.046 A 
ENDROOT
BRANCH   6  13
HETATM   13  N2  CLQ  2534       0.276  37.115 235.275  1.00 20.00    -0.385 N 
ATOM     14  H2  CLQ  2534       0.331  37.393 234.295  1.00  0.00     0.160 HD
BRANCH  13  15
HETATM   15  C10 CLQ  2534      -1.091  37.145 235.896  1.00 20.00     0.077 C 
HETATM   16  C18 CLQ  2534      -1.212  38.324 236.850  1.00 20.00     0.032 C 
BRANCH  15  17
HETATM   17  C11 CLQ  2534      -1.380  35.793 236.566  1.00 20.00     0.026 C 
BRANCH  17  18
HETATM   18  C12 CLQ  2534      -2.633  35.064 236.118  1.00 20.00     0.032 C 
BRANCH  18  19
HETATM   19  C13 CLQ  2534      -2.470  34.608 234.677  1.00 20.00     0.272 C 
BRANCH  19  20
HETATM   20  N3  CLQ  2534      -3.708  34.790 233.841  1.00 20.00     0.087 N 
BRANCH  20  21
HETATM   21  C14 CLQ  2534      -3.442  35.601 232.554  1.00 20.00     0.268 C 
HETATM   22  C15 CLQ  2534      -2.112  36.339 232.435  1.00 20.00     0.037 C 
ENDBRANCH  20  21
BRANCH  20  23
HETATM   23  C16 CLQ  2534      -4.521  33.533 233.704  1.00 20.00     0.268 C 
HETATM   24  C17 CLQ  2534      -6.000  33.723 233.780  1.00 20.00     0.037 C 
ENDBRANCH  20  23
ENDBRANCH  19  20
ENDBRANCH  18  19
ENDBRANCH  17  18
ENDBRANCH  15  17
ENDBRANCH  13  15
ENDBRANCH   6  13
TORSDOF 8
ENDMDL
MODEL 5
REMARK VINA RESULT:      -5.4      2.469      4.242
REMARK  8 active torsions:
REMARK  status: ('A' for Active; 'I' for Inactive)
REMARK    1  A    between atoms: C3_6  and  N2_13 
REMARK    2  A    between atoms: C10_15  and  N2_13 
REMARK    3  A    between atoms: C10_15  and  C11_16 
REMARK    4  A    between atoms: C11_16  and  C12_17 
REMARK    5  A    between atoms: C12_17  and  C13_18 
REMARK    6  A    between atoms: C13_18  and  N3_19 
REMARK    7  A    between atoms: C14_20  and  N3_19 
REMARK    8  A    between atoms: C16_22  and  N3_19 
ROOT
HETATM    1 CL   CLQ  2534       4.453  31.585 236.434  1.00 20.00    -0.084 Cl
HETATM    2  N1  CLQ  2534       3.249  36.512 237.308  1.00 20.00    -0.365 N 
ATOM      3  H1  CLQ  2534       3.984  36.506 238.015  1.00  0.00     0.165 HD
HETATM    4  C1  CLQ  2534       2.541  37.643 237.108  1.00 20.00     0.090 A 
HETATM    5  C2  CLQ  2534       1.522  37.708 236.166  1.00 20.00     0.047 A 
HETATM    6  C3  CLQ  2534       1.189  36.559 235.324  1.00 20.00     0.042 A 
HETATM    7  C4  CLQ  2534       1.966  35.318 235.526  1.00 20.00     0.017 A 
HETATM    8  C5  CLQ  2534       1.767  34.067 234.795  1.00 20.00     0.018 A 
HETATM    9  C6  CLQ  2534       2.538  32.929 235.064  1.00 20.00     0.025 A 
HETATM   10  C7  CLQ  2534       3.538  32.996 236.089  1.00 20.00     0.036 A 
HETATM   11  C8  CLQ  2534       3.774  34.167 236.826  1.00 20.00     0.054 A 
HETATM   12  C9  CLQ  2534       3.002  35.332 236.563  1.00 20.00     0.046 A 
ENDROOT
BRANCH   6  13
HETATM   13  N2  CLQ  2534       0.194  36.595 234.386  1.00 20.00    -0.385 N 
ATOM     14  H2  CLQ  2534       0.495  36.619 233.411  1.00  0.00     0.160 HD
BRANCH  13  15
HETATM   15  C10 CLQ  2534      -1.289  36.601 234.621  1.00 20.00     0.077 C 
HETATM   16  C18 CLQ  2534      -1.633  35.773 235.849  1.00 20.00     0.032 C 
BRANCH  15  17
HETATM   17  C11 CLQ  2534      -2.013  36.128 233.351  1.00 20.00     0.026 C 
BRANCH  17  18
HETATM   18  C12 CLQ  2534      -1.476  36.643 232.028  1.00 20.00     0.032 C 
BRANCH  18  19
HETATM   19  C13 CLQ  2534      -1.167  35.471 231.111  1.00 20.00     0.272 C 
BRANCH  19  20
HETATM   20  N3  CLQ  2534      -0.086  34.564 231.631  1.00 20.00     0.087 N 
BRANCH  20  21
HETATM   21  C14 CLQ  2534      -0.440  33.068 231.477  1.00 20.00     0.268 C 
HETATM   22  C15 CLQ  2534       0.613  32.039 231.872  1.00 20.00     0.037 C 
ENDBRANCH  20  21
BRANCH  20  23
HETATM   23  C16 CLQ  2534       1.295  34.988 231.216  1.00 20.00     0.268 C 
HETATM   24  C17 CLQ  2534       1.526  35.039 229.742  1.00 20.00     0.037 C 
ENDBRANCH  20  23
ENDBRANCH  19  20
ENDBRANCH  18  19
ENDBRANCH  17  18
ENDBRANCH  15  17
ENDBRANCH  13  15
ENDBRANCH   6  13
TORSDOF 8
ENDMDL
MODEL 6
REMARK VINA RESULT:      -5.4      2.482      4.394
REMARK  8 active torsions:
REMARK  status: ('A' for Active; 'I' for Inactive)
REMARK    1  A    between atoms: C3_6  and  N2_13 
REMARK    2  A    between atoms: C10_15  and  N2_13 
REMARK    3  A    between atoms: C10_15  and  C11_16 
REMARK    4  A    between atoms: C11_16  and  C12_17 
REMARK    5  A    between atoms: C12_17  and  C13_18 
REMARK    6  A    between atoms: C13_18  and  N3_19 
REMARK    7  A    between atoms: C14_20  and  N3_19 
REMARK    8  A    between atoms: C16_22  and  N3_19 
ROOT
HETATM    1 CL   CLQ  2534       4.890  37.053 238.831  1.00 20.00    -0.084 Cl
HETATM    2  N1  CLQ  2534       1.567  33.122 238.858  1.00 20.00    -0.365 N 
ATOM      3  H1  CLQ  2534       1.497  33.264 239.866  1.00  0.00     0.165 HD
HETATM    4  C1  CLQ  2534       0.855  32.131 238.285  1.00 20.00     0.090 A 
HETATM    5  C2  CLQ  2534       0.918  31.884 236.919  1.00 20.00     0.047 A 
HETATM    6  C3  CLQ  2534       1.740  32.708 236.033  1.00 20.00     0.042 A 
HETATM    7  C4  CLQ  2534       2.517  33.804 236.649  1.00 20.00     0.017 A 
HETATM    8  C5  CLQ  2534       3.403  34.719 235.931  1.00 20.00     0.018 A 
HETATM    9  C6  CLQ  2534       4.119  35.722 236.599  1.00 20.00     0.025 A 
HETATM   10  C7  CLQ  2534       3.982  35.843 238.020  1.00 20.00     0.036 A 
HETATM   11  C8  CLQ  2534       3.147  34.994 238.764  1.00 20.00     0.054 A 
HETATM   12  C9  CLQ  2534       2.411  33.973 238.101  1.00 20.00     0.046 A 
ENDROOT
BRANCH   6  13
HETATM   13  N2  CLQ  2534       1.819  32.491 234.684  1.00 20.00    -0.385 N 
ATOM     14  H2  CLQ  2534       2.631  31.966 234.361  1.00  0.00     0.160 HD
BRANCH  13  15
HETATM   15  C10 CLQ  2534       0.852  32.936 233.625  1.00 20.00     0.077 C 
HETATM   16  C18 CLQ  2534       1.023  32.096 232.368  1.00 20.00     0.032 C 
BRANCH  15  17
HETATM   17  C11 CLQ  2534       1.023  34.442 233.373  1.00 20.00     0.026 C 
BRANCH  17  18
HETATM   18  C12 CLQ  2534      -0.161  35.328 233.712  1.00 20.00     0.032 C 
BRANCH  18  19
HETATM   19  C13 CLQ  2534       0.204  36.251 234.863  1.00 20.00     0.272 C 
BRANCH  19  20
HETATM   20  N3  CLQ  2534      -0.985  36.790 235.608  1.00 20.00     0.087 N 
BRANCH  20  21
HETATM   21  C14 CLQ  2534      -1.995  35.686 235.994  1.00 20.00     0.268 C 
HETATM   22  C15 CLQ  2534      -1.589  34.691 237.076  1.00 20.00     0.037 C 
ENDBRANCH  20  21
BRANCH  20  23
HETATM   23  C16 CLQ  2534      -0.618  37.785 236.673  1.00 20.00     0.268 C 
HETATM   24  C17 CLQ  2534       0.798  37.717 237.143  1.00 20.00     0.037 C 
ENDBRANCH  20  23
ENDBRANCH  19  20
ENDBRANCH  18  19
ENDBRANCH  17  18
ENDBRANCH  15  17
ENDBRANCH  13  15
ENDBRANCH   6  13
TORSDOF 8
ENDMDL
MODEL 7
REMARK VINA RESULT:      -5.2      2.763      4.686
REMARK  8 active torsions:
REMARK  status: ('A' for Active; 'I' for Inactive)
REMARK    1  A    between atoms: C3_6  and  N2_13 
REMARK    2  A    between atoms: C10_15  and  N2_13 
REMARK    3  A    between atoms: C10_15  and  C11_16 
REMARK    4  A    between atoms: C11_16  and  C12_17 
REMARK    5  A    between atoms: C12_17  and  C13_18 
REMARK    6  A    between atoms: C13_18  and  N3_19 
REMARK    7  A    between atoms: C14_20  and  N3_19 
REMARK    8  A    between atoms: C16_22  and  N3_19 
ROOT
HETATM    1 CL   CLQ  2534       3.960  31.268 235.300  1.00 20.00    -0.084 Cl
HETATM    2  N1  CLQ  2534       3.929  36.067 237.160  1.00 20.00    -0.365 N 
ATOM      3  H1  CLQ  2534       4.810  35.834 237.618  1.00  0.00     0.165 HD
HETATM    4  C1  CLQ  2534       3.408  37.299 237.332  1.00 20.00     0.090 A 
HETATM    5  C2  CLQ  2534       2.206  37.671 236.743  1.00 20.00     0.047 A 
HETATM    6  C3  CLQ  2534       1.464  36.751 235.882  1.00 20.00     0.042 A 
HETATM    7  C4  CLQ  2534       2.031  35.402 235.677  1.00 20.00     0.017 A 
HETATM    8  C5  CLQ  2534       1.427  34.344 234.867  1.00 20.00     0.018 A 
HETATM    9  C6  CLQ  2534       2.025  33.084 234.742  1.00 20.00     0.025 A 
HETATM   10  C7  CLQ  2534       3.254  32.827 235.434  1.00 20.00     0.036 A 
HETATM   11  C8  CLQ  2534       3.881  33.802 236.227  1.00 20.00     0.054 A 
HETATM   12  C9  CLQ  2534       3.289  35.087 236.361  1.00 20.00     0.046 A 
ENDROOT
BRANCH   6  13
HETATM   13  N2  CLQ  2534       0.280  37.090 235.284  1.00 20.00    -0.385 N 
ATOM     14  H2  CLQ  2534       0.331  37.348 234.299  1.00  0.00     0.160 HD
BRANCH  13  15
HETATM   15  C10 CLQ  2534      -1.085  37.129 235.909  1.00 20.00     0.077 C 
HETATM   16  C18 CLQ  2534      -1.199  38.312 236.858  1.00 20.00     0.032 C 
BRANCH  15  17
HETATM   17  C11 CLQ  2534      -1.378  35.781 236.585  1.00 20.00     0.026 C 
BRANCH  17  18
HETATM   18  C12 CLQ  2534      -2.673  35.091 236.199  1.00 20.00     0.032 C 
BRANCH  18  19
HETATM   19  C13 CLQ  2534      -2.697  34.853 234.698  1.00 20.00     0.272 C 
BRANCH  19  20
HETATM   20  N3  CLQ  2534      -2.051  33.560 234.281  1.00 20.00     0.087 N 
BRANCH  20  21
HETATM   21  C14 CLQ  2534      -2.345  32.405 235.262  1.00 20.00     0.268 C 
HETATM   22  C15 CLQ  2534      -1.222  31.417 235.562  1.00 20.00     0.037 C 
ENDBRANCH  20  21
BRANCH  20  23
HETATM   23  C16 CLQ  2534      -2.201  33.269 232.814  1.00 20.00     0.268 C 
HETATM   24  C17 CLQ  2534      -0.919  33.124 232.062  1.00 20.00     0.037 C 
ENDBRANCH  20  23
ENDBRANCH  19  20
ENDBRANCH  18  19
ENDBRANCH  17  18
ENDBRANCH  15  17
ENDBRANCH  13  15
ENDBRANCH   6  13
TORSDOF 8
ENDMDL
MODEL 8
REMARK VINA RESULT:      -5.1      2.781      4.552
REMARK  8 active torsions:
REMARK  status: ('A' for Active; 'I' for Inactive)
REMARK    1  A    between atoms: C3_6  and  N2_13 
REMARK    2  A    between atoms: C10_15  and  N2_13 
REMARK    3  A    between atoms: C10_15  and  C11_16 
REMARK    4  A    between atoms: C11_16  and  C12_17 
REMARK    5  A    between atoms: C12_17  and  C13_18 
REMARK    6  A    between atoms: C13_18  and  N3_19 
REMARK    7  A    between atoms: C14_20  and  N3_19 
REMARK    8  A    between atoms: C16_22  and  N3_19 
ROOT
HETATM    1 CL   CLQ  2534       4.848  31.966 238.688  1.00 20.00    -0.084 Cl
HETATM    2  N1  CLQ  2534       2.708  36.595 237.993  1.00 20.00    -0.365 N 
ATOM      3  H1  CLQ  2534       2.955  36.791 238.964  1.00  0.00     0.165 HD
HETATM    4  C1  CLQ  2534       2.064  37.540 237.278  1.00 20.00     0.090 A 
HETATM    5  C2  CLQ  2534       1.694  37.327 235.956  1.00 20.00     0.047 A 
HETATM    6  C3  CLQ  2534       2.012  36.076 235.269  1.00 20.00     0.042 A 
HETATM    7  C4  CLQ  2534       2.727  35.037 236.040  1.00 20.00     0.017 A 
HETATM    8  C5  CLQ  2534       3.114  33.722 235.530  1.00 20.00     0.018 A 
HETATM    9  C6  CLQ  2534       3.775  32.788 236.338  1.00 20.00     0.025 A 
HETATM   10  C7  CLQ  2534       4.068  33.132 237.698  1.00 20.00     0.036 A 
HETATM   11  C8  CLQ  2534       3.721  34.378 238.244  1.00 20.00     0.054 A 
HETATM   12  C9  CLQ  2534       3.052  35.338 237.437  1.00 20.00     0.046 A 
ENDROOT
BRANCH   6  13
HETATM   13  N2  CLQ  2534       1.663  35.838 233.966  1.00 20.00    -0.385 N 
ATOM     14  H2  CLQ  2534       2.299  36.203 233.257  1.00  0.00     0.160 HD
BRANCH  13  15
HETATM   15  C10 CLQ  2534       0.455  35.104 233.459  1.00 20.00     0.077 C 
HETATM   16  C18 CLQ  2534       0.877  33.919 232.605  1.00 20.00     0.032 C 
BRANCH  15  17
HETATM   17  C11 CLQ  2534      -0.467  36.085 232.719  1.00 20.00     0.026 C 
BRANCH  17  18
HETATM   18  C12 CLQ  2534      -1.729  36.513 233.444  1.00 20.00     0.032 C 
BRANCH  18  19
HETATM   19  C13 CLQ  2534      -1.618  36.154 234.918  1.00 20.00     0.272 C 
BRANCH  19  20
HETATM   20  N3  CLQ  2534      -2.701  35.228 235.398  1.00 20.00     0.087 N 
BRANCH  20  21
HETATM   21  C14 CLQ  2534      -3.363  34.439 234.247  1.00 20.00     0.268 C 
HETATM   22  C15 CLQ  2534      -2.873  33.021 233.976  1.00 20.00     0.037 C 
ENDBRANCH  20  21
BRANCH  20  23
HETATM   23  C16 CLQ  2534      -2.316  34.453 236.628  1.00 20.00     0.268 C 
HETATM   24  C17 CLQ  2534      -0.894  34.605 237.053  1.00 20.00     0.037 C 
ENDBRANCH  20  23
ENDBRANCH  19  20
ENDBRANCH  18  19
ENDBRANCH  17  18
ENDBRANCH  15  17
ENDBRANCH  13  15
ENDBRANCH   6  13
TORSDOF 8
ENDMDL
MODEL 9
REMARK VINA RESULT:      -5.0      3.275      5.212
REMARK  8 active torsions:
REMARK  status: ('A' for Active; 'I' for Inactive)
REMARK    1  A    between atoms: C3_6  and  N2_13 
REMARK    2  A    between atoms: C10_15  and  N2_13 
REMARK    3  A    between atoms: C10_15  and  C11_16 
REMARK    4  A    between atoms: C11_16  and  C12_17 
REMARK    5  A    between atoms: C12_17  and  C13_18 
REMARK    6  A    between atoms: C13_18  and  N3_19 
REMARK    7  A    between atoms: C14_20  and  N3_19 
REMARK    8  A    between atoms: C16_22  and  N3_19 
ROOT
HETATM    1 CL   CLQ  2534       4.782  31.051 240.121  1.00 20.00    -0.084 Cl
HETATM    2  N1  CLQ  2534       4.531  36.180 239.773  1.00 20.00    -0.365 N 
ATOM      3  H1  CLQ  2534       4.821  36.202 240.751  1.00  0.00     0.165 HD
HETATM    4  C1  CLQ  2534       4.295  37.343 239.133  1.00 20.00     0.090 A 
HETATM    5  C2  CLQ  2534       3.888  37.374 237.805  1.00 20.00     0.047 A 
HETATM    6  C3  CLQ  2534       3.725  36.145 237.029  1.00 20.00     0.042 A 
HETATM    7  C4  CLQ  2534       3.992  34.864 237.718  1.00 20.00     0.017 A 
HETATM    8  C5  CLQ  2534       3.868  33.538 237.114  1.00 20.00     0.018 A 
HETATM    9  C6  CLQ  2534       4.122  32.372 237.848  1.00 20.00     0.025 A 
HETATM   10  C7  CLQ  2534       4.505  32.488 239.224  1.00 20.00     0.036 A 
HETATM   11  C8  CLQ  2534       4.641  33.733 239.858  1.00 20.00     0.054 A 
HETATM   12  C9  CLQ  2534       4.389  34.926 239.128  1.00 20.00     0.046 A 
ENDROOT
BRANCH   6  13
HETATM   13  N2  CLQ  2534       3.329  36.144 235.719  1.00 20.00    -0.385 N 
ATOM     14  H2  CLQ  2534       4.075  36.102 235.024  1.00  0.00     0.160 HD
BRANCH  13  15
HETATM   15  C10 CLQ  2534       1.928  36.200 235.184  1.00 20.00     0.077 C 
HETATM   16  C18 CLQ  2534       1.936  36.088 233.667  1.00 20.00     0.032 C 
BRANCH  15  17
HETATM   17  C11 CLQ  2534       1.234  37.472 235.693  1.00 20.00     0.026 C 
BRANCH  17  18
HETATM   18  C12 CLQ  2534       0.154  37.287 236.742  1.00 20.00     0.032 C 
BRANCH  18  19
HETATM   19  C13 CLQ  2534      -0.393  35.870 236.668  1.00 20.00     0.272 C 
BRANCH  19  20
HETATM   20  N3  CLQ  2534      -1.808  35.793 236.166  1.00 20.00     0.087 N 
BRANCH  20  21
HETATM   21  C14 CLQ  2534      -1.888  35.404 234.673  1.00 20.00     0.268 C 
HETATM   22  C15 CLQ  2534      -1.673  36.501 233.635  1.00 20.00     0.037 C 
ENDBRANCH  20  21
BRANCH  20  23
HETATM   23  C16 CLQ  2534      -2.735  35.080 237.110  1.00 20.00     0.268 C 
HETATM   24  C17 CLQ  2534      -2.146  33.896 237.804  1.00 20.00     0.037 C 
ENDBRANCH  20  23
ENDBRANCH  19  20
ENDBRANCH  18  19
ENDBRANCH  17  18
ENDBRANCH  15  17
ENDBRANCH  13  15
ENDBRANCH   6  13
TORSDOF 8
ENDMDL
