MODEL 1
REMARK VINA RESULT:      -6.8      0.000      0.000
REMARK  0 active torsions:
REMARK  status: ('A' for Active; 'I' for Inactive)
ROOT
HETATM    1  C1  ESR  3412       3.464  36.754 238.340  1.00 20.00     0.127 C 
HETATM    2  C2  ESR  3412       2.689  37.144 237.075  1.00 20.00     0.083 C 
HETATM    3  C3  ESR  3412       2.721  36.187 235.906  1.00 20.00    -0.003 C 
HETATM    4  C4  ESR  3412       2.472  34.633 236.398  1.00 20.00    -0.005 C 
HETATM    5  C5  ESR  3412       3.624  34.192 237.467  1.00 20.00     0.013 C 
HETATM    6  C6  ESR  3412       3.563  35.174 238.699  1.00 20.00     0.079 C 
HETATM    7  C10 ESR  3412       1.644  36.659 234.903  1.00 20.00     0.006 C 
HETATM    8  C11 ESR  3412       1.578  35.721 233.644  1.00 20.00     0.006 C 
HETATM    9  C12 ESR  3412       1.285  34.198 234.080  1.00 20.00    -0.005 C 
HETATM   10  C13 ESR  3412       2.498  33.656 235.109  1.00 20.00    -0.006 C 
HETATM   11  C16 ESR  3412       1.213  33.261 232.809  1.00 20.00     0.006 C 
HETATM   12  C17 ESR  3412       0.942  31.755 233.148  1.00 20.00     0.021 C 
HETATM   13  C19 ESR  3412       2.219  32.058 235.554  1.00 20.00     0.006 C 
HETATM   14  C24 ESR  3412       0.121  33.559 231.697  1.00 20.00     0.013 C 
HETATM   15  C25 ESR  3412       0.413  32.318 230.790  1.00 20.00     0.079 C 
HETATM   16  C26 ESR  3412       0.918  31.153 231.785  1.00 20.00     0.135 C 
HETATM   17  C27 ESR  3412      -0.466  31.278 233.892  1.00 20.00     0.024 C 
HETATM   18  O1  ESR  3412       3.929  37.581 238.953  1.00 20.00    -0.298 OA
HETATM   19  C18 ESR  3412       2.285  31.301 234.122  1.00 20.00     0.017 C 
HETATM   20  O26 ESR  3412       1.217  30.086 231.465  1.00 20.00    -0.297 OA
ENDROOT
TORSDOF 0
ENDMDL
MODEL 2
REMARK VINA RESULT:      -6.7      7.230     10.269
REMARK  0 active torsions:
REMARK  status: ('A' for Active; 'I' for Inactive)
ROOT
HETATM    1  C1  ESR  3412      -1.793  34.372 229.612  1.00 20.00     0.127 C 
HETATM    2  C2  ESR  3412      -0.389  34.709 229.095  1.00 20.00     0.083 C 
HETATM    3  C3  ESR  3412      -0.229  35.953 228.251  1.00 20.00    -0.003 C 
HETATM    4  C4  ESR  3412      -1.029  37.234 228.915  1.00 20.00    -0.005 C 
HETATM    5  C5  ESR  3412      -2.620  36.892 229.047  1.00 20.00     0.013 C 
HETATM    6  C6  ESR  3412      -2.781  35.613 229.956  1.00 20.00     0.079 C 
HETATM    7  C10 ESR  3412       1.287  36.221 228.119  1.00 20.00     0.006 C 
HETATM    8  C11 ESR  3412       1.574  37.510 227.268  1.00 20.00     0.006 C 
HETATM    9  C12 ESR  3412       0.849  38.796 227.913  1.00 20.00    -0.005 C 
HETATM   10  C13 ESR  3412      -0.810  38.538 227.985  1.00 20.00    -0.006 C 
HETATM   11  C16 ESR  3412       1.147  40.089 227.055  1.00 20.00     0.006 C 
HETATM   12  C17 ESR  3412       0.466  41.387 227.611  1.00 20.00     0.021 C 
HETATM   13  C19 ESR  3412      -1.584  39.883 228.634  1.00 20.00     0.006 C 
HETATM   14  C24 ESR  3412       2.652  40.553 226.863  1.00 20.00     0.013 C 
HETATM   15  C25 ESR  3412       2.358  41.876 226.081  1.00 20.00     0.079 C 
HETATM   16  C26 ESR  3412       0.932  42.401 226.624  1.00 20.00     0.135 C 
HETATM   17  C27 ESR  3412       0.849  41.987 229.113  1.00 20.00     0.024 C 
HETATM   18  O1  ESR  3412      -2.070  33.283 229.724  1.00 20.00    -0.298 OA
HETATM   19  C18 ESR  3412      -1.216  41.031 227.551  1.00 20.00     0.017 C 
HETATM   20  O26 ESR  3412       0.400  43.364 226.276  1.00 20.00    -0.297 OA
ENDROOT
TORSDOF 0
ENDMDL
MODEL 3
REMARK VINA RESULT:      -6.7      3.073      3.721
REMARK  0 active torsions:
REMARK  status: ('A' for Active; 'I' for Inactive)
ROOT
HETATM    1  C1  ESR  3412       5.459  35.661 239.959  1.00 20.00     0.127 C 
HETATM    2  C2  ESR  3412       4.686  36.764 239.226  1.00 20.00     0.083 C 
HETATM    3  C3  ESR  3412       3.788  36.354 238.082  1.00 20.00    -0.003 C 
HETATM    4  C4  ESR  3412       2.874  35.040 238.479  1.00 20.00    -0.005 C 
HETATM    5  C5  ESR  3412       3.841  33.782 238.863  1.00 20.00     0.013 C 
HETATM    6  C6  ESR  3412       4.752  34.205 240.078  1.00 20.00     0.079 C 
HETATM    7  C10 ESR  3412       2.917  37.580 237.726  1.00 20.00     0.006 C 
HETATM    8  C11 ESR  3412       1.925  37.263 236.549  1.00 20.00     0.006 C 
HETATM    9  C12 ESR  3412       0.979  36.013 236.919  1.00 20.00    -0.005 C 
HETATM   10  C13 ESR  3412       1.921  34.656 237.230  1.00 20.00    -0.006 C 
HETATM   11  C16 ESR  3412      -0.019  35.702 235.734  1.00 20.00     0.006 C 
HETATM   12  C17 ESR  3412      -0.971  34.488 236.011  1.00 20.00     0.021 C 
HETATM   13  C19 ESR  3412       0.946  33.336 237.594  1.00 20.00     0.006 C 
HETATM   14  C24 ESR  3412      -1.035  36.830 235.272  1.00 20.00     0.013 C 
HETATM   15  C25 ESR  3412      -1.814  35.979 234.215  1.00 20.00     0.079 C 
HETATM   16  C26 ESR  3412      -1.772  34.459 234.755  1.00 20.00     0.135 C 
HETATM   17  C27 ESR  3412      -2.066  34.518 237.261  1.00 20.00     0.024 C 
HETATM   18  O1  ESR  3412       6.480  35.913 240.373  1.00 20.00    -0.298 OA
HETATM   19  C18 ESR  3412       0.102  33.161 236.222  1.00 20.00     0.017 C 
HETATM   20  O26 ESR  3412      -2.257  33.553 234.231  1.00 20.00    -0.297 OA
ENDROOT
TORSDOF 0
ENDMDL
MODEL 4
REMARK VINA RESULT:      -6.6      9.540     11.742
REMARK  0 active torsions:
REMARK  status: ('A' for Active; 'I' for Inactive)
ROOT
HETATM    1  C1  ESR  3412       1.472  41.878 228.117  1.00 20.00     0.127 C 
HETATM    2  C2  ESR  3412       0.657  40.707 228.680  1.00 20.00     0.083 C 
HETATM    3  C3  ESR  3412      -0.785  40.580 228.247  1.00 20.00    -0.003 C 
HETATM    4  C4  ESR  3412      -0.942  40.791 226.618  1.00 20.00    -0.005 C 
HETATM    5  C5  ESR  3412      -0.395  42.268 226.190  1.00 20.00     0.013 C 
HETATM    6  C6  ESR  3412       1.119  42.381 226.615  1.00 20.00     0.079 C 
HETATM    7  C10 ESR  3412      -1.275  39.186 228.701  1.00 20.00     0.006 C 
HETATM    8  C11 ESR  3412      -2.770  38.936 228.287  1.00 20.00     0.006 C 
HETATM    9  C12 ESR  3412      -2.956  39.084 226.694  1.00 20.00    -0.005 C 
HETATM   10  C13 ESR  3412      -2.498  40.626 226.207  1.00 20.00    -0.006 C 
HETATM   11  C16 ESR  3412      -4.460  38.826 226.284  1.00 20.00     0.006 C 
HETATM   12  C17 ESR  3412      -4.728  38.962 224.746  1.00 20.00     0.021 C 
HETATM   13  C19 ESR  3412      -2.709  40.804 224.549  1.00 20.00     0.006 C 
HETATM   14  C24 ESR  3412      -5.115  37.419 226.618  1.00 20.00     0.013 C 
HETATM   15  C25 ESR  3412      -6.492  37.667 225.916  1.00 20.00     0.079 C 
HETATM   16  C26 ESR  3412      -6.185  38.657 224.680  1.00 20.00     0.135 C 
HETATM   17  C27 ESR  3412      -3.991  37.954 223.648  1.00 20.00     0.024 C 
HETATM   18  O1  ESR  3412       2.270  42.334 228.775  1.00 20.00    -0.298 OA
HETATM   19  C18 ESR  3412      -4.308  40.593 224.395  1.00 20.00     0.017 C 
HETATM   20  O26 ESR  3412      -6.969  39.049 223.930  1.00 20.00    -0.297 OA
ENDROOT
TORSDOF 0
ENDMDL
MODEL 5
REMARK VINA RESULT:      -6.5      1.545      3.065
REMARK  0 active torsions:
REMARK  status: ('A' for Active; 'I' for Inactive)
ROOT
HETATM    1  C1  ESR  3412       4.214  36.378 238.468  1.00 20.00     0.127 C 
HETATM    2  C2  ESR  3412       4.199  34.959 237.888  1.00 20.00     0.083 C 
HETATM    3  C3  ESR  3412       3.018  34.558 237.035  1.00 20.00    -0.003 C 
HETATM    4  C4  ESR  3412       2.641  35.736 235.943  1.00 20.00    -0.005 C 
HETATM    5  C5  ESR  3412       2.277  37.124 236.722  1.00 20.00     0.013 C 
HETATM    6  C6  ESR  3412       3.526  37.553 237.584  1.00 20.00     0.079 C 
HETATM    7  C10 ESR  3412       3.387  33.225 236.345  1.00 20.00     0.006 C 
HETATM    8  C11 ESR  3412       2.229  32.717 235.413  1.00 20.00     0.006 C 
HETATM    9  C12 ESR  3412       1.864  33.822 234.299  1.00 20.00    -0.005 C 
HETATM   10  C13 ESR  3412       1.386  35.249 235.047  1.00 20.00    -0.006 C 
HETATM   11  C16 ESR  3412       0.703  33.302 233.361  1.00 20.00     0.006 C 
HETATM   12  C17 ESR  3412       0.279  34.327 232.254  1.00 20.00     0.021 C 
HETATM   13  C19 ESR  3412       0.978  36.406 233.896  1.00 20.00     0.006 C 
HETATM   14  C24 ESR  3412       0.930  31.973 232.524  1.00 20.00     0.013 C 
HETATM   15  C25 ESR  3412      -0.418  32.003 231.729  1.00 20.00     0.079 C 
HETATM   16  C26 ESR  3412      -0.790  33.563 231.550  1.00 20.00     0.135 C 
HETATM   17  C27 ESR  3412       1.348  34.821 231.080  1.00 20.00     0.024 C 
HETATM   18  O1  ESR  3412       4.695  36.534 239.478  1.00 20.00    -0.298 OA
HETATM   19  C18 ESR  3412      -0.267  35.695 233.141  1.00 20.00     0.017 C 
HETATM   20  O26 ESR  3412      -1.720  33.967 231.000  1.00 20.00    -0.297 OA
ENDROOT
TORSDOF 0
ENDMDL
MODEL 6
REMARK VINA RESULT:      -6.3      9.534     12.706
REMARK  0 active torsions:
REMARK  status: ('A' for Active; 'I' for Inactive)
ROOT
HETATM    1  C1  ESR  3412      -6.060  37.916 224.535  1.00 20.00     0.127 C 
HETATM    2  C2  ESR  3412      -5.067  38.877 223.870  1.00 20.00     0.083 C 
HETATM    3  C3  ESR  3412      -4.206  39.734 224.769  1.00 20.00    -0.003 C 
HETATM    4  C4  ESR  3412      -3.566  38.851 226.007  1.00 20.00    -0.005 C 
HETATM    5  C5  ESR  3412      -4.762  38.191 226.900  1.00 20.00     0.013 C 
HETATM    6  C6  ESR  3412      -5.636  37.272 225.963  1.00 20.00     0.079 C 
HETATM    7  C10 ESR  3412      -3.111  40.368 223.882  1.00 20.00     0.006 C 
HETATM    8  C11 ESR  3412      -2.142  41.276 224.720  1.00 20.00     0.006 C 
HETATM    9  C12 ESR  3412      -1.457  40.435 225.911  1.00 20.00    -0.005 C 
HETATM   10  C13 ESR  3412      -2.643  39.810 226.924  1.00 20.00    -0.006 C 
HETATM   11  C16 ESR  3412      -0.478  41.353 226.747  1.00 20.00     0.006 C 
HETATM   12  C17 ESR  3412       0.223  40.611 227.936  1.00 20.00     0.021 C 
HETATM   13  C19 ESR  3412      -1.942  38.950 228.187  1.00 20.00     0.006 C 
HETATM   14  C24 ESR  3412       0.747  42.041 226.008  1.00 20.00     0.013 C 
HETATM   15  C25 ESR  3412       1.405  42.690 227.271  1.00 20.00     0.079 C 
HETATM   16  C26 ESR  3412       1.062  41.705 228.502  1.00 20.00     0.135 C 
HETATM   17  C27 ESR  3412       1.247  39.329 227.670  1.00 20.00     0.024 C 
HETATM   18  O1  ESR  3412      -7.036  37.711 224.004  1.00 20.00    -0.298 OA
HETATM   19  C18 ESR  3412      -1.081  40.102 228.934  1.00 20.00     0.017 C 
HETATM   20  O26 ESR  3412       1.398  41.862 229.595  1.00 20.00    -0.297 OA
ENDROOT
TORSDOF 0
ENDMDL
MODEL 7
REMARK VINA RESULT:      -6.3      1.634      2.496
REMARK  0 active torsions:
REMARK  status: ('A' for Active; 'I' for Inactive)
ROOT
HETATM    1  C1  ESR  3412       5.201  35.331 240.319  1.00 20.00     0.127 C 
HETATM    2  C2  ESR  3412       4.465  36.360 239.454  1.00 20.00     0.083 C 
HETATM    3  C3  ESR  3412       4.147  35.983 238.025  1.00 20.00    -0.003 C 
HETATM    4  C4  ESR  3412       3.527  34.457 237.933  1.00 20.00    -0.005 C 
HETATM    5  C5  ESR  3412       4.597  33.381 238.534  1.00 20.00     0.013 C 
HETATM    6  C6  ESR  3412       4.898  33.762 240.034  1.00 20.00     0.079 C 
HETATM    7  C10 ESR  3412       3.163  37.043 237.482  1.00 20.00     0.006 C 
HETATM    8  C11 ESR  3412       2.749  36.740 235.997  1.00 20.00     0.006 C 
HETATM    9  C12 ESR  3412       2.092  35.275 235.873  1.00 20.00    -0.005 C 
HETATM   10  C13 ESR  3412       3.189  34.112 236.390  1.00 20.00    -0.006 C 
HETATM   11  C16 ESR  3412       1.672  34.979 234.378  1.00 20.00     0.006 C 
HETATM   12  C17 ESR  3412       1.033  33.563 234.170  1.00 20.00     0.021 C 
HETATM   13  C19 ESR  3412       2.526  32.573 236.243  1.00 20.00     0.006 C 
HETATM   14  C24 ESR  3412       0.618  35.933 233.674  1.00 20.00     0.013 C 
HETATM   15  C25 ESR  3412       0.494  35.140 232.331  1.00 20.00     0.079 C 
HETATM   16  C26 ESR  3412       0.742  33.592 232.709  1.00 20.00     0.135 C 
HETATM   17  C27 ESR  3412      -0.391  33.140 234.919  1.00 20.00     0.024 C 
HETATM   18  O1  ESR  3412       5.917  35.713 241.104  1.00 20.00    -0.298 OA
HETATM   19  C18 ESR  3412       2.274  32.473 234.646  1.00 20.00     0.017 C 
HETATM   20  O26 ESR  3412       0.717  32.712 231.963  1.00 20.00    -0.297 OA
ENDROOT
TORSDOF 0
ENDMDL
MODEL 8
REMARK VINA RESULT:      -6.3      6.672      8.625
REMARK  0 active torsions:
REMARK  status: ('A' for Active; 'I' for Inactive)
ROOT
HETATM    1  C1  ESR  3412       1.620  42.471 227.759  1.00 20.00     0.127 C 
HETATM    2  C2  ESR  3412       0.365  41.781 228.308  1.00 20.00     0.083 C 
HETATM    3  C3  ESR  3412       0.070  40.376 227.835  1.00 20.00    -0.003 C 
HETATM    4  C4  ESR  3412       1.425  39.436 227.867  1.00 20.00    -0.005 C 
HETATM    5  C5  ESR  3412       2.575  40.082 226.905  1.00 20.00     0.013 C 
HETATM    6  C6  ESR  3412       2.902  41.534 227.424  1.00 20.00     0.079 C 
HETATM    7  C10 ESR  3412      -1.046  39.815 228.746  1.00 20.00     0.006 C 
HETATM    8  C11 ESR  3412      -1.427  38.343 228.353  1.00 20.00     0.006 C 
HETATM    9  C12 ESR  3412      -0.136  37.381 228.420  1.00 20.00    -0.005 C 
HETATM   10  C13 ESR  3412       1.050  37.944 227.371  1.00 20.00    -0.006 C 
HETATM   11  C16 ESR  3412      -0.527  35.900 228.029  1.00 20.00     0.006 C 
HETATM   12  C17 ESR  3412       0.678  34.899 228.058  1.00 20.00     0.021 C 
HETATM   13  C19 ESR  3412       2.395  36.935 227.411  1.00 20.00     0.006 C 
HETATM   14  C24 ESR  3412      -1.618  35.140 228.896  1.00 20.00     0.013 C 
HETATM   15  C25 ESR  3412      -1.521  33.755 228.174  1.00 20.00     0.079 C 
HETATM   16  C26 ESR  3412       0.006  33.628 227.669  1.00 20.00     0.135 C 
HETATM   17  C27 ESR  3412       1.500  34.579 229.468  1.00 20.00     0.024 C 
HETATM   18  O1  ESR  3412       1.588  43.591 227.611  1.00 20.00    -0.298 OA
HETATM   19  C18 ESR  3412       1.772  35.533 226.891  1.00 20.00     0.017 C 
HETATM   20  O26 ESR  3412       0.447  32.725 227.101  1.00 20.00    -0.297 OA
ENDROOT
TORSDOF 0
ENDMDL
MODEL 9
REMARK VINA RESULT:      -6.3      1.301      6.957
REMARK  0 active torsions:
REMARK  status: ('A' for Active; 'I' for Inactive)
ROOT
HETATM    1  C1  ESR  3412       0.320  31.383 229.989  1.00 20.00     0.127 C 
HETATM    2  C2  ESR  3412       0.667  30.844 231.383  1.00 20.00     0.083 C 
HETATM    3  C3  ESR  3412       1.366  31.777 232.345  1.00 20.00    -0.003 C 
HETATM    4  C4  ESR  3412       0.659  33.267 232.354  1.00 20.00    -0.005 C 
HETATM    5  C5  ESR  3412       0.713  33.921 230.860  1.00 20.00     0.013 C 
HETATM    6  C6  ESR  3412      -0.047  32.959 229.867  1.00 20.00     0.079 C 
HETATM    7  C10 ESR  3412       1.326  31.107 233.738  1.00 20.00     0.006 C 
HETATM    8  C11 ESR  3412       2.016  32.002 234.829  1.00 20.00     0.006 C 
HETATM    9  C12 ESR  3412       1.320  33.453 234.904  1.00 20.00    -0.005 C 
HETATM   10  C13 ESR  3412       1.432  34.217 233.411  1.00 20.00    -0.006 C 
HETATM   11  C16 ESR  3412       2.015  34.345 236.007  1.00 20.00     0.006 C 
HETATM   12  C17 ESR  3412       1.403  35.782 236.136  1.00 20.00     0.021 C 
HETATM   13  C19 ESR  3412       0.731  35.744 233.480  1.00 20.00     0.006 C 
HETATM   14  C24 ESR  3412       2.017  33.842 237.512  1.00 20.00     0.013 C 
HETATM   15  C25 ESR  3412       2.690  35.104 238.147  1.00 20.00     0.079 C 
HETATM   16  C26 ESR  3412       2.236  36.353 237.232  1.00 20.00     0.135 C 
HETATM   17  C27 ESR  3412      -0.181  36.008 236.591  1.00 20.00     0.024 C 
HETATM   18  O1  ESR  3412       0.343  30.661 229.121  1.00 20.00    -0.298 OA
HETATM   19  C18 ESR  3412       1.657  36.482 234.586  1.00 20.00     0.017 C 
HETATM   20  O26 ESR  3412       2.538  37.452 237.408  1.00 20.00    -0.297 OA
ENDROOT
TORSDOF 0
ENDMDL
