MODEL 1
REMARK VINA RESULT:      -7.3      0.000      0.000
REMARK  5 active torsions:
REMARK  status: ('A' for Active; 'I' for Inactive)
REMARK    1  A    between atoms: C15_2  and  S1_1 
REMARK    2  A    between atoms: N3_25  and  S1_1 
REMARK    3  A    between atoms: C12_5  and  N2_8 
REMARK    4  A    between atoms: C3_9  and  C5_10 
REMARK    5  A    between atoms: C1_18  and  C4_19 
ROOT
HETATM    1  N2  CEL  2427      -1.901  37.924 229.244  1.00 20.00    -0.255 N 
HETATM    2  C3  CEL  2427      -2.914  37.090 228.863  1.00 20.00     0.069 A 
HETATM    3  C2  CEL  2427      -3.225  36.309 229.972  1.00 20.00     0.068 A 
HETATM    4  C1  CEL  2427      -2.293  36.682 230.934  1.00 20.00     0.135 A 
HETATM    5  N1  CEL  2427      -1.504  37.647 230.500  1.00 20.00    -0.289 N 
ATOM      6  H1  CEL  2427      -0.745  38.093 231.014  1.00  0.00     0.187 HD
ENDROOT
BRANCH   1   7
HETATM    7  C12 CEL  2427      -1.116  38.947 228.564  1.00 20.00     0.057 A 
HETATM    8  C13 CEL  2427       0.063  38.563 227.985  1.00 20.00     0.033 A 
HETATM    9  C14 CEL  2427       0.876  39.536 227.420  1.00 20.00     0.027 A 
HETATM   10  C15 CEL  2427       0.480  40.853 227.441  1.00 20.00     0.079 A 
HETATM   11  C16 CEL  2427      -0.711  41.251 228.013  1.00 20.00     0.027 A 
HETATM   12  C17 CEL  2427      -1.523  40.266 228.586  1.00 20.00     0.033 A 
BRANCH  10  13
HETATM   13  S1  CEL  2427       1.562  42.133 226.820  1.00 20.00     0.256 S 
HETATM   14  O1  CEL  2427       0.682  43.211 226.442  1.00 20.00    -0.201 OA
HETATM   15  O2  CEL  2427       2.502  42.427 227.824  1.00 20.00    -0.201 OA
BRANCH  13  16
HETATM   16  N3  CEL  2427       2.314  41.564 225.541  1.00 20.00    -0.324 N 
ATOM     17  H32 CEL  2427       1.889  40.983 224.819  1.00  0.00     0.169 HD
ATOM     18  H31 CEL  2427       3.283  41.883 225.576  1.00  0.00     0.169 HD
ENDBRANCH  13  16
ENDBRANCH  10  13
ENDBRANCH   1   7
BRANCH   2  19
HETATM   19  C5  CEL  2427      -3.693  37.048 227.630  1.00 20.00    -0.007 A 
HETATM   20  C10 CEL  2427      -3.651  35.883 226.881  1.00 20.00     0.014 A 
HETATM   21  C9  CEL  2427      -4.337  35.798 225.691  1.00 20.00     0.007 A 
HETATM   22  C8  CEL  2427      -5.113  36.849 225.261  1.00 20.00    -0.062 A 
HETATM   23  C11 CEL  2427      -5.853  36.740 223.953  1.00 20.00     0.048 C 
HETATM   24  C7  CEL  2427      -5.224  37.989 226.050  1.00 20.00     0.007 A 
HETATM   25  C6  CEL  2427      -4.489  38.089 227.203  1.00 20.00     0.014 A 
ENDBRANCH   2  19
BRANCH   4  26
HETATM   26  C4  CEL  2427      -2.118  36.111 232.299  1.00 20.00     0.434 C 
HETATM   27  F3  CEL  2427      -1.450  34.988 232.339  1.00 20.00    -0.165 F 
HETATM   28  F2  CEL  2427      -3.249  35.972 232.982  1.00 20.00    -0.165 F 
HETATM   29  F1  CEL  2427      -1.427  36.967 233.044  1.00 20.00    -0.165 F 
ENDBRANCH   4  26
TORSDOF 5
ENDMDL
MODEL 2
REMARK VINA RESULT:      -7.0      5.382      8.542
REMARK  5 active torsions:
REMARK  status: ('A' for Active; 'I' for Inactive)
REMARK    1  A    between atoms: C15_2  and  S1_1 
REMARK    2  A    between atoms: N3_25  and  S1_1 
REMARK    3  A    between atoms: C12_5  and  N2_8 
REMARK    4  A    between atoms: C3_9  and  C5_10 
REMARK    5  A    between atoms: C1_18  and  C4_19 
ROOT
HETATM    1  N2  CEL  2427       0.155  35.745 234.232  1.00 20.00    -0.255 N 
HETATM    2  C3  CEL  2427       0.838  35.182 235.273  1.00 20.00     0.069 A 
HETATM    3  C2  CEL  2427       0.418  35.838 236.426  1.00 20.00     0.068 A 
HETATM    4  C1  CEL  2427      -0.443  36.829 235.969  1.00 20.00     0.135 A 
HETATM    5  N1  CEL  2427      -0.602  36.773 234.660  1.00 20.00    -0.289 N 
ATOM      6  H1  CEL  2427      -1.182  37.385 234.088  1.00  0.00     0.187 HD
ENDROOT
BRANCH   1   7
HETATM    7  C12 CEL  2427       0.152  35.541 232.789  1.00 20.00     0.057 A 
HETATM    8  C13 CEL  2427       1.308  35.096 232.207  1.00 20.00     0.033 A 
HETATM    9  C14 CEL  2427       1.361  34.990 230.824  1.00 20.00     0.027 A 
HETATM   10  C15 CEL  2427       0.257  35.320 230.072  1.00 20.00     0.079 A 
HETATM   11  C16 CEL  2427      -0.917  35.760 230.648  1.00 20.00     0.027 A 
HETATM   12  C17 CEL  2427      -0.961  35.870 232.042  1.00 20.00     0.033 A 
BRANCH  10  13
HETATM   13  S1  CEL  2427       0.340  35.298 228.287  1.00 20.00     0.256 S 
HETATM   14  O1  CEL  2427      -1.027  35.139 227.854  1.00 20.00    -0.201 OA
HETATM   15  O2  CEL  2427       0.985  36.476 227.871  1.00 20.00    -0.201 OA
BRANCH  13  16
HETATM   16  N3  CEL  2427       1.204  34.038 227.849  1.00 20.00    -0.324 N 
ATOM     17  H32 CEL  2427       1.018  33.074 228.124  1.00  0.00     0.169 HD
ATOM     18  H31 CEL  2427       1.964  34.368 227.253  1.00  0.00     0.169 HD
ENDBRANCH  13  16
ENDBRANCH  10  13
ENDBRANCH   1   7
BRANCH   2  19
HETATM   19  C5  CEL  2427       1.726  34.025 235.307  1.00 20.00    -0.007 A 
HETATM   20  C10 CEL  2427       2.978  34.190 235.878  1.00 20.00     0.014 A 
HETATM   21  C9  CEL  2427       3.871  33.144 235.907  1.00 20.00     0.007 A 
HETATM   22  C8  CEL  2427       3.509  31.910 235.418  1.00 20.00    -0.062 A 
HETATM   23  C11 CEL  2427       4.502  30.777 235.453  1.00 20.00     0.048 C 
HETATM   24  C7  CEL  2427       2.225  31.717 234.919  1.00 20.00     0.007 A 
HETATM   25  C6  CEL  2427       1.364  32.780 234.838  1.00 20.00     0.014 A 
ENDBRANCH   2  19
BRANCH   4  26
HETATM   26  C4  CEL  2427      -1.132  37.876 236.775  1.00 20.00     0.434 C 
HETATM   27  F3  CEL  2427      -2.222  37.474 237.376  1.00 20.00    -0.165 F 
HETATM   28  F2  CEL  2427      -1.388  38.997 236.110  1.00 20.00    -0.165 F 
HETATM   29  F1  CEL  2427      -0.320  38.287 237.742  1.00 20.00    -0.165 F 
ENDBRANCH   4  26
TORSDOF 5
ENDMDL
MODEL 3
REMARK VINA RESULT:      -7.0      4.302      6.116
REMARK  5 active torsions:
REMARK  status: ('A' for Active; 'I' for Inactive)
REMARK    1  A    between atoms: C15_2  and  S1_1 
REMARK    2  A    between atoms: N3_25  and  S1_1 
REMARK    3  A    between atoms: C12_5  and  N2_8 
REMARK    4  A    between atoms: C3_9  and  C5_10 
REMARK    5  A    between atoms: C1_18  and  C4_19 
ROOT
HETATM    1  N2  CEL  2427       0.973  35.762 228.065  1.00 20.00    -0.255 N 
HETATM    2  C3  CEL  2427       0.874  34.865 229.090  1.00 20.00     0.069 A 
HETATM    3  C2  CEL  2427       1.306  33.640 228.590  1.00 20.00     0.068 A 
HETATM    4  C1  CEL  2427       1.556  33.881 227.244  1.00 20.00     0.135 A 
HETATM    5  N1  CEL  2427       1.360  35.148 226.931  1.00 20.00    -0.289 N 
ATOM      6  H1  CEL  2427       1.477  35.576 226.013  1.00  0.00     0.187 HD
ENDROOT
BRANCH   1   7
HETATM    7  C12 CEL  2427       0.661  37.178 227.919  1.00 20.00     0.057 A 
HETATM    8  C13 CEL  2427       1.613  37.986 227.359  1.00 20.00     0.033 A 
HETATM    9  C14 CEL  2427       1.379  39.353 227.301  1.00 20.00     0.027 A 
HETATM   10  C15 CEL  2427       0.200  39.864 227.791  1.00 20.00     0.079 A 
HETATM   11  C16 CEL  2427      -0.773  39.059 228.348  1.00 20.00     0.027 A 
HETATM   12  C17 CEL  2427      -0.527  37.683 228.409  1.00 20.00     0.033 A 
BRANCH  10  13
HETATM   13  S1  CEL  2427      -0.073  41.630 227.828  1.00 20.00     0.256 S 
HETATM   14  O1  CEL  2427      -1.192  41.850 226.946  1.00 20.00    -0.201 OA
HETATM   15  O2  CEL  2427      -0.261  42.009 229.168  1.00 20.00    -0.201 OA
BRANCH  13  16
HETATM   16  N3  CEL  2427       1.226  42.342 227.254  1.00 20.00    -0.324 N 
ATOM     17  H32 CEL  2427       1.439  43.335 227.339  1.00  0.00     0.169 HD
ATOM     18  H31 CEL  2427       1.798  41.632 226.793  1.00  0.00     0.169 HD
ENDBRANCH  13  16
ENDBRANCH  10  13
ENDBRANCH   1   7
BRANCH   2  19
HETATM   19  C5  CEL  2427       0.549  35.068 230.498  1.00 20.00    -0.007 A 
HETATM   20  C10 CEL  2427      -0.789  35.180 230.841  1.00 20.00     0.014 A 
HETATM   21  C9  CEL  2427      -1.153  35.407 232.148  1.00 20.00     0.007 A 
HETATM   22  C8  CEL  2427      -0.196  35.472 233.134  1.00 20.00    -0.062 A 
HETATM   23  C11 CEL  2427      -0.613  35.728 234.559  1.00 20.00     0.048 C 
HETATM   24  C7  CEL  2427       1.142  35.279 232.806  1.00 20.00     0.007 A 
HETATM   25  C6  CEL  2427       1.501  35.114 231.494  1.00 20.00     0.014 A 
ENDBRANCH   2  19
BRANCH   4  26
HETATM   26  C4  CEL  2427       1.978  32.897 226.208  1.00 20.00     0.434 C 
HETATM   27  F3  CEL  2427       1.023  32.116 225.776  1.00 20.00    -0.165 F 
HETATM   28  F2  CEL  2427       3.026  32.157 226.551  1.00 20.00    -0.165 F 
HETATM   29  F1  CEL  2427       2.417  33.551 225.139  1.00 20.00    -0.165 F 
ENDBRANCH   4  26
TORSDOF 5
ENDMDL
MODEL 4
REMARK VINA RESULT:      -7.0      3.134      5.041
REMARK  5 active torsions:
REMARK  status: ('A' for Active; 'I' for Inactive)
REMARK    1  A    between atoms: C15_2  and  S1_1 
REMARK    2  A    between atoms: N3_25  and  S1_1 
REMARK    3  A    between atoms: C12_5  and  N2_8 
REMARK    4  A    between atoms: C3_9  and  C5_10 
REMARK    5  A    between atoms: C1_18  and  C4_19 
ROOT
HETATM    1  N2  CEL  2427      -1.985  38.500 227.982  1.00 20.00    -0.255 N 
HETATM    2  C3  CEL  2427      -2.346  37.393 228.696  1.00 20.00     0.069 A 
HETATM    3  C2  CEL  2427      -3.559  36.958 228.171  1.00 20.00     0.068 A 
HETATM    4  C1  CEL  2427      -3.887  37.912 227.214  1.00 20.00     0.135 A 
HETATM    5  N1  CEL  2427      -2.947  38.832 227.100  1.00 20.00    -0.289 N 
ATOM      6  H1  CEL  2427      -2.949  39.633 226.469  1.00  0.00     0.187 HD
ENDROOT
BRANCH   1   7
HETATM    7  C12 CEL  2427      -0.863  39.428 228.042  1.00 20.00     0.057 A 
HETATM    8  C13 CEL  2427       0.348  38.994 227.575  1.00 20.00     0.033 A 
HETATM    9  C14 CEL  2427       1.453  39.822 227.714  1.00 20.00     0.027 A 
HETATM   10  C15 CEL  2427       1.310  41.058 228.301  1.00 20.00     0.079 A 
HETATM   11  C16 CEL  2427       0.092  41.511 228.767  1.00 20.00     0.027 A 
HETATM   12  C17 CEL  2427      -1.016  40.668 228.630  1.00 20.00     0.033 A 
BRANCH  10  13
HETATM   13  S1  CEL  2427       2.738  42.092 228.591  1.00 20.00     0.256 S 
HETATM   14  O1  CEL  2427       3.858  41.317 228.120  1.00 20.00    -0.201 OA
HETATM   15  O2  CEL  2427       2.520  43.320 227.941  1.00 20.00    -0.201 OA
BRANCH  13  16
HETATM   16  N3  CEL  2427       2.859  42.337 230.156  1.00 20.00    -0.324 N 
ATOM     17  H32 CEL  2427       2.446  43.119 230.663  1.00  0.00     0.169 HD
ATOM     18  H31 CEL  2427       3.417  41.580 230.552  1.00  0.00     0.169 HD
ENDBRANCH  13  16
ENDBRANCH  10  13
ENDBRANCH   1   7
BRANCH   2  19
HETATM   19  C5  CEL  2427      -1.615  36.640 229.710  1.00 20.00    -0.007 A 
HETATM   20  C10 CEL  2427      -0.623  35.773 229.278  1.00 20.00     0.014 A 
HETATM   21  C9  CEL  2427       0.075  35.011 230.186  1.00 20.00     0.007 A 
HETATM   22  C8  CEL  2427      -0.169  35.142 231.534  1.00 20.00    -0.062 A 
HETATM   23  C11 CEL  2427       0.602  34.295 232.514  1.00 20.00     0.048 C 
HETATM   24  C7  CEL  2427      -1.106  36.070 231.977  1.00 20.00     0.007 A 
HETATM   25  C6  CEL  2427      -1.839  36.780 231.063  1.00 20.00     0.014 A 
ENDBRANCH   2  19
BRANCH   4  26
HETATM   26  C4  CEL  2427      -5.124  37.982 226.387  1.00 20.00     0.434 C 
HETATM   27  F3  CEL  2427      -5.577  39.192 226.182  1.00 20.00    -0.165 F 
HETATM   28  F2  CEL  2427      -6.116  37.212 226.821  1.00 20.00    -0.165 F 
HETATM   29  F1  CEL  2427      -4.872  37.484 225.182  1.00 20.00    -0.165 F 
ENDBRANCH   4  26
TORSDOF 5
ENDMDL
MODEL 5
REMARK VINA RESULT:      -6.8      1.917      2.560
REMARK  5 active torsions:
REMARK  status: ('A' for Active; 'I' for Inactive)
REMARK    1  A    between atoms: C15_2  and  S1_1 
REMARK    2  A    between atoms: N3_25  and  S1_1 
REMARK    3  A    between atoms: C12_5  and  N2_8 
REMARK    4  A    between atoms: C3_9  and  C5_10 
REMARK    5  A    between atoms: C1_18  and  C4_19 
ROOT
HETATM    1  N2  CEL  2427      -2.138  38.207 228.281  1.00 20.00    -0.255 N 
HETATM    2  C3  CEL  2427      -3.268  37.933 227.563  1.00 20.00     0.069 A 
HETATM    3  C2  CEL  2427      -3.824  36.784 228.118  1.00 20.00     0.068 A 
HETATM    4  C1  CEL  2427      -2.916  36.396 229.098  1.00 20.00     0.135 A 
HETATM    5  N1  CEL  2427      -1.911  37.246 229.196  1.00 20.00    -0.289 N 
ATOM      6  H1  CEL  2427      -1.121  37.186 229.838  1.00  0.00     0.187 HD
ENDROOT
BRANCH   1   7
HETATM    7  C12 CEL  2427      -1.105  39.232 228.200  1.00 20.00     0.057 A 
HETATM    8  C13 CEL  2427       0.119  38.863 227.710  1.00 20.00     0.033 A 
HETATM    9  C14 CEL  2427       1.148  39.795 227.717  1.00 20.00     0.027 A 
HETATM   10  C15 CEL  2427       0.917  41.063 228.198  1.00 20.00     0.079 A 
HETATM   11  C16 CEL  2427      -0.315  41.449 228.685  1.00 20.00     0.027 A 
HETATM   12  C17 CEL  2427      -1.346  40.503 228.681  1.00 20.00     0.033 A 
BRANCH  10  13
HETATM   13  S1  CEL  2427       2.255  42.241 228.319  1.00 20.00     0.256 S 
HETATM   14  O1  CEL  2427       3.340  41.648 227.577  1.00 20.00    -0.201 OA
HETATM   15  O2  CEL  2427       1.786  43.477 227.842  1.00 20.00    -0.201 OA
BRANCH  13  16
HETATM   16  N3  CEL  2427       2.651  42.381 229.852  1.00 20.00    -0.324 N 
ATOM     17  H32 CEL  2427       2.052  42.132 230.639  1.00  0.00     0.169 HD
ATOM     18  H31 CEL  2427       3.598  42.758 229.900  1.00  0.00     0.169 HD
ENDBRANCH  13  16
ENDBRANCH  10  13
ENDBRANCH   1   7
BRANCH   2  19
HETATM   19  C5  CEL  2427      -3.935  38.701 226.517  1.00 20.00    -0.007 A 
HETATM   20  C10 CEL  2427      -5.251  38.382 226.224  1.00 20.00     0.014 A 
HETATM   21  C9  CEL  2427      -5.920  39.048 225.223  1.00 20.00     0.007 A 
HETATM   22  C8  CEL  2427      -5.305  40.073 224.541  1.00 20.00    -0.062 A 
HETATM   23  C11 CEL  2427      -6.051  40.787 223.444  1.00 20.00     0.048 C 
HETATM   24  C7  CEL  2427      -4.012  40.451 224.887  1.00 20.00     0.007 A 
HETATM   25  C6  CEL  2427      -3.333  39.742 225.843  1.00 20.00     0.014 A 
ENDBRANCH   2  19
BRANCH   4  26
HETATM   26  C4  CEL  2427      -2.976  35.184 229.963  1.00 20.00     0.434 C 
HETATM   27  F3  CEL  2427      -3.627  35.346 231.085  1.00 20.00    -0.165 F 
HETATM   28  F2  CEL  2427      -1.793  34.636 230.219  1.00 20.00    -0.165 F 
HETATM   29  F1  CEL  2427      -3.614  34.217 229.314  1.00 20.00    -0.165 F 
ENDBRANCH   4  26
TORSDOF 5
ENDMDL
MODEL 6
REMARK VINA RESULT:      -6.8      3.618      5.183
REMARK  5 active torsions:
REMARK  status: ('A' for Active; 'I' for Inactive)
REMARK    1  A    between atoms: C15_2  and  S1_1 
REMARK    2  A    between atoms: N3_25  and  S1_1 
REMARK    3  A    between atoms: C12_5  and  N2_8 
REMARK    4  A    between atoms: C3_9  and  C5_10 
REMARK    5  A    between atoms: C1_18  and  C4_19 
ROOT
HETATM    1  N2  CEL  2427      -2.287  39.174 227.374  1.00 20.00    -0.255 N 
HETATM    2  C3  CEL  2427      -3.034  38.137 227.857  1.00 20.00     0.069 A 
HETATM    3  C2  CEL  2427      -4.174  38.064 227.061  1.00 20.00     0.068 A 
HETATM    4  C1  CEL  2427      -4.063  39.144 226.193  1.00 20.00     0.135 A 
HETATM    5  N1  CEL  2427      -2.937  39.806 226.378  1.00 20.00    -0.289 N 
ATOM      6  H1  CEL  2427      -2.622  40.631 225.869  1.00  0.00     0.187 HD
ENDROOT
BRANCH   1   7
HETATM    7  C12 CEL  2427      -1.023  39.785 227.765  1.00 20.00     0.057 A 
HETATM    8  C13 CEL  2427      -1.074  40.953 228.478  1.00 20.00     0.033 A 
HETATM    9  C14 CEL  2427       0.114  41.606 228.774  1.00 20.00     0.027 A 
HETATM   10  C15 CEL  2427       1.311  41.066 228.363  1.00 20.00     0.079 A 
HETATM   11  C16 CEL  2427       1.376  39.884 227.653  1.00 20.00     0.027 A 
HETATM   12  C17 CEL  2427       0.174  39.235 227.351  1.00 20.00     0.033 A 
BRANCH  10  13
HETATM   13  S1  CEL  2427       2.842  41.946 228.636  1.00 20.00     0.256 S 
HETATM   14  O1  CEL  2427       3.872  41.048 228.179  1.00 20.00    -0.201 OA
HETATM   15  O2  CEL  2427       2.756  43.179 227.965  1.00 20.00    -0.201 OA
BRANCH  13  16
HETATM   16  N3  CEL  2427       2.989  42.203 230.197  1.00 20.00    -0.324 N 
ATOM     17  H32 CEL  2427       3.871  42.351 230.688  1.00  0.00     0.169 HD
ATOM     18  H31 CEL  2427       2.056  42.193 230.609  1.00  0.00     0.169 HD
ENDBRANCH  13  16
ENDBRANCH  10  13
ENDBRANCH   1   7
BRANCH   2  19
HETATM   19  C5  CEL  2427      -2.728  37.146 228.882  1.00 20.00    -0.007 A 
HETATM   20  C10 CEL  2427      -3.311  35.894 228.763  1.00 20.00     0.014 A 
HETATM   21  C9  CEL  2427      -3.087  34.931 229.719  1.00 20.00     0.007 A 
HETATM   22  C8  CEL  2427      -2.240  35.184 230.774  1.00 20.00    -0.062 A 
HETATM   23  C11 CEL  2427      -2.011  34.119 231.814  1.00 20.00     0.048 C 
HETATM   24  C7  CEL  2427      -1.589  36.411 230.854  1.00 20.00     0.007 A 
HETATM   25  C6  CEL  2427      -1.865  37.385 229.930  1.00 20.00     0.014 A 
ENDBRANCH   2  19
BRANCH   4  26
HETATM   26  C4  CEL  2427      -5.046  39.587 225.164  1.00 20.00     0.434 C 
HETATM   27  F3  CEL  2427      -4.863  39.073 223.976  1.00 20.00    -0.165 F 
HETATM   28  F2  CEL  2427      -5.166  40.906 225.055  1.00 20.00    -0.165 F 
HETATM   29  F1  CEL  2427      -6.264  39.210 225.535  1.00 20.00    -0.165 F 
ENDBRANCH   4  26
TORSDOF 5
ENDMDL
MODEL 7
REMARK VINA RESULT:      -6.7      5.261      7.044
REMARK  5 active torsions:
REMARK  status: ('A' for Active; 'I' for Inactive)
REMARK    1  A    between atoms: C15_2  and  S1_1 
REMARK    2  A    between atoms: N3_25  and  S1_1 
REMARK    3  A    between atoms: C12_5  and  N2_8 
REMARK    4  A    between atoms: C3_9  and  C5_10 
REMARK    5  A    between atoms: C1_18  and  C4_19 
ROOT
HETATM    1  N2  CEL  2427      -0.539  35.860 233.974  1.00 20.00    -0.255 N 
HETATM    2  C3  CEL  2427      -1.459  35.367 234.855  1.00 20.00     0.069 A 
HETATM    3  C2  CEL  2427      -1.197  35.969 236.082  1.00 20.00     0.068 A 
HETATM    4  C1  CEL  2427      -0.056  36.732 235.860  1.00 20.00     0.135 A 
HETATM    5  N1  CEL  2427       0.336  36.669 234.601  1.00 20.00    -0.289 N 
ATOM      6  H1  CEL  2427       1.140  37.138 234.187  1.00  0.00     0.187 HD
ENDROOT
BRANCH   1   7
HETATM    7  C12 CEL  2427      -0.251  35.622 232.565  1.00 20.00     0.057 A 
HETATM    8  C13 CEL  2427       0.912  34.971 232.254  1.00 20.00     0.033 A 
HETATM    9  C14 CEL  2427       1.256  34.822 230.918  1.00 20.00     0.027 A 
HETATM   10  C15 CEL  2427       0.425  35.316 229.940  1.00 20.00     0.079 A 
HETATM   11  C16 CEL  2427      -0.755  35.965 230.240  1.00 20.00     0.027 A 
HETATM   12  C17 CEL  2427      -1.093  36.117 231.589  1.00 20.00     0.033 A 
BRANCH  10  13
HETATM   13  S1  CEL  2427       0.904  35.234 228.220  1.00 20.00     0.256 S 
HETATM   14  O1  CEL  2427       1.115  36.606 227.829  1.00 20.00    -0.201 OA
HETATM   15  O2  CEL  2427       2.021  34.386 228.123  1.00 20.00    -0.201 OA
BRANCH  13  16
HETATM   16  N3  CEL  2427      -0.306  34.610 227.401  1.00 20.00    -0.324 N 
ATOM     17  H32 CEL  2427      -1.229  35.032 227.303  1.00  0.00     0.169 HD
ATOM     18  H31 CEL  2427       0.007  33.726 226.999  1.00  0.00     0.169 HD
ENDBRANCH  13  16
ENDBRANCH  10  13
ENDBRANCH   1   7
BRANCH   2  19
HETATM   19  C5  CEL  2427      -2.617  34.508 234.634  1.00 20.00    -0.007 A 
HETATM   20  C10 CEL  2427      -2.689  33.324 235.351  1.00 20.00     0.014 A 
HETATM   21  C9  CEL  2427      -3.740  32.459 235.158  1.00 20.00     0.007 A 
HETATM   22  C8  CEL  2427      -4.756  32.784 234.290  1.00 20.00    -0.062 A 
HETATM   23  C11 CEL  2427      -5.897  31.821 234.086  1.00 20.00     0.048 C 
HETATM   24  C7  CEL  2427      -4.730  34.008 233.629  1.00 20.00     0.007 A 
HETATM   25  C6  CEL  2427      -3.649  34.837 233.781  1.00 20.00     0.014 A 
ENDBRANCH   2  19
BRANCH   4  26
HETATM   26  C4  CEL  2427       0.707  37.537 236.855  1.00 20.00     0.434 C 
HETATM   27  F3  CEL  2427       1.498  36.841 237.629  1.00 20.00    -0.165 F 
HETATM   28  F2  CEL  2427      -0.045  38.335 237.605  1.00 20.00    -0.165 F 
HETATM   29  F1  CEL  2427       1.494  38.392 236.213  1.00 20.00    -0.165 F 
ENDBRANCH   4  26
TORSDOF 5
ENDMDL
MODEL 8
REMARK VINA RESULT:      -6.7      5.139      7.608
REMARK  5 active torsions:
REMARK  status: ('A' for Active; 'I' for Inactive)
REMARK    1  A    between atoms: C15_2  and  S1_1 
REMARK    2  A    between atoms: N3_25  and  S1_1 
REMARK    3  A    between atoms: C12_5  and  N2_8 
REMARK    4  A    between atoms: C3_9  and  C5_10 
REMARK    5  A    between atoms: C1_18  and  C4_19 
ROOT
HETATM    1  N2  CEL  2427      -2.162  39.526 227.161  1.00 20.00    -0.255 N 
HETATM    2  C3  CEL  2427      -1.297  40.500 226.751  1.00 20.00     0.069 A 
HETATM    3  C2  CEL  2427      -1.981  41.272 225.815  1.00 20.00     0.068 A 
HETATM    4  C1  CEL  2427      -3.207  40.634 225.667  1.00 20.00     0.135 A 
HETATM    5  N1  CEL  2427      -3.317  39.594 226.471  1.00 20.00    -0.289 N 
ATOM      6  H1  CEL  2427      -4.116  38.966 226.554  1.00  0.00     0.187 HD
ENDROOT
BRANCH   1   7
HETATM    7  C12 CEL  2427      -2.065  38.403 228.085  1.00 20.00     0.057 A 
HETATM    8  C13 CEL  2427      -3.217  37.972 228.686  1.00 20.00     0.033 A 
HETATM    9  C14 CEL  2427      -3.136  36.971 229.644  1.00 20.00     0.027 A 
HETATM   10  C15 CEL  2427      -1.913  36.427 229.959  1.00 20.00     0.079 A 
HETATM   11  C16 CEL  2427      -0.745  36.846 229.353  1.00 20.00     0.027 A 
HETATM   12  C17 CEL  2427      -0.834  37.860 228.393  1.00 20.00     0.033 A 
BRANCH  10  13
HETATM   13  S1  CEL  2427      -1.771  35.218 231.268  1.00 20.00     0.256 S 
HETATM   14  O1  CEL  2427      -2.738  35.628 232.257  1.00 20.00    -0.201 OA
HETATM   15  O2  CEL  2427      -1.969  33.946 230.703  1.00 20.00    -0.201 OA
BRANCH  13  16
HETATM   16  N3  CEL  2427      -0.302  35.309 231.866  1.00 20.00    -0.324 N 
ATOM     17  H32 CEL  2427       0.410  34.584 231.788  1.00  0.00     0.169 HD
ATOM     18  H31 CEL  2427      -0.207  36.211 232.334  1.00  0.00     0.169 HD
ENDBRANCH  13  16
ENDBRANCH  10  13
ENDBRANCH   1   7
BRANCH   2  19
HETATM   19  C5  CEL  2427       0.032  40.852 227.237  1.00 20.00    -0.007 A 
HETATM   20  C10 CEL  2427       0.123  41.466 228.477  1.00 20.00     0.014 A 
HETATM   21  C9  CEL  2427       1.347  41.852 228.971  1.00 20.00     0.007 A 
HETATM   22  C8  CEL  2427       2.497  41.586 228.264  1.00 20.00    -0.062 A 
HETATM   23  C11 CEL  2427       3.828  42.023 228.818  1.00 20.00     0.048 C 
HETATM   24  C7  CEL  2427       2.418  40.898 227.057  1.00 20.00     0.007 A 
HETATM   25  C6  CEL  2427       1.190  40.571 226.544  1.00 20.00     0.014 A 
ENDBRANCH   2  19
BRANCH   4  26
HETATM   26  C4  CEL  2427      -4.311  40.994 224.733  1.00 20.00     0.434 C 
HETATM   27  F3  CEL  2427      -4.042  40.801 223.469  1.00 20.00    -0.165 F 
HETATM   28  F2  CEL  2427      -4.785  42.225 224.896  1.00 20.00    -0.165 F 
HETATM   29  F1  CEL  2427      -5.369  40.235 224.995  1.00 20.00    -0.165 F 
ENDBRANCH   4  26
TORSDOF 5
ENDMDL
MODEL 9
REMARK VINA RESULT:      -6.7      3.988      5.293
REMARK  5 active torsions:
REMARK  status: ('A' for Active; 'I' for Inactive)
REMARK    1  A    between atoms: C15_2  and  S1_1 
REMARK    2  A    between atoms: N3_25  and  S1_1 
REMARK    3  A    between atoms: C12_5  and  N2_8 
REMARK    4  A    between atoms: C3_9  and  C5_10 
REMARK    5  A    between atoms: C1_18  and  C4_19 
ROOT
HETATM    1  N2  CEL  2427      -3.144  39.445 226.628  1.00 20.00    -0.255 N 
HETATM    2  C3  CEL  2427      -3.811  38.320 227.023  1.00 20.00     0.069 A 
HETATM    3  C2  CEL  2427      -4.993  38.281 226.288  1.00 20.00     0.068 A 
HETATM    4  C1  CEL  2427      -4.986  39.460 225.552  1.00 20.00     0.135 A 
HETATM    5  N1  CEL  2427      -3.882  40.154 225.753  1.00 20.00    -0.289 N 
ATOM      6  H1  CEL  2427      -3.637  41.049 225.330  1.00  0.00     0.187 HD
ENDROOT
BRANCH   1   7
HETATM    7  C12 CEL  2427      -1.887  40.072 227.018  1.00 20.00     0.057 A 
HETATM    8  C13 CEL  2427      -1.766  40.501 228.312  1.00 20.00     0.033 A 
HETATM    9  C14 CEL  2427      -0.619  41.190 228.681  1.00 20.00     0.027 A 
HETATM   10  C15 CEL  2427       0.370  41.415 227.753  1.00 20.00     0.079 A 
HETATM   11  C16 CEL  2427       0.264  40.978 226.448  1.00 20.00     0.027 A 
HETATM   12  C17 CEL  2427      -0.898  40.290 226.081  1.00 20.00     0.033 A 
BRANCH  10  13
HETATM   13  S1  CEL  2427       1.803  42.396 228.178  1.00 20.00     0.256 S 
HETATM   14  O1  CEL  2427       2.915  41.710 227.569  1.00 20.00    -0.201 OA
HETATM   15  O2  CEL  2427       1.572  43.710 227.734  1.00 20.00    -0.201 OA
BRANCH  13  16
HETATM   16  N3  CEL  2427       1.952  42.390 229.760  1.00 20.00    -0.324 N 
ATOM     17  H32 CEL  2427       2.334  43.153 230.317  1.00  0.00     0.169 HD
ATOM     18  H31 CEL  2427       1.602  41.497 230.107  1.00  0.00     0.169 HD
ENDBRANCH  13  16
ENDBRANCH  10  13
ENDBRANCH   1   7
BRANCH   2  19
HETATM   19  C5  CEL  2427      -3.397  37.233 227.902  1.00 20.00    -0.007 A 
HETATM   20  C10 CEL  2427      -3.077  36.018 227.318  1.00 20.00     0.014 A 
HETATM   21  C9  CEL  2427      -2.714  34.946 228.100  1.00 20.00     0.007 A 
HETATM   22  C8  CEL  2427      -2.614  35.086 229.465  1.00 20.00    -0.062 A 
HETATM   23  C11 CEL  2427      -2.220  33.899 230.306  1.00 20.00     0.048 C 
HETATM   24  C7  CEL  2427      -2.855  36.325 230.048  1.00 20.00     0.007 A 
HETATM   25  C6  CEL  2427      -3.275  37.371 229.268  1.00 20.00     0.014 A 
ENDBRANCH   2  19
BRANCH   4  26
HETATM   26  C4  CEL  2427      -6.050  39.969 224.642  1.00 20.00     0.434 C 
HETATM   27  F3  CEL  2427      -6.709  41.003 225.096  1.00 20.00    -0.165 F 
HETATM   28  F2  CEL  2427      -6.914  39.043 224.239  1.00 20.00    -0.165 F 
HETATM   29  F1  CEL  2427      -5.495  40.368 223.503  1.00 20.00    -0.165 F 
ENDBRANCH   4  26
TORSDOF 5
ENDMDL
