MODEL 1
REMARK VINA RESULT:      -6.4      0.000      0.000
REMARK  10 active torsions:
REMARK  status: ('A' for Active; 'I' for Inactive)
REMARK    1  A    between atoms: C10_9  and  O6_51 
REMARK    2  A    between atoms: C13_12  and  O7_53 
REMARK    3  A    between atoms: C15_14  and  O8_54 
REMARK    4  A    between atoms: C21_20  and  C38_37 
REMARK    5  A    between atoms: C24_23  and  O10_56 
REMARK    6  A    between atoms: C26_25  and  C27_26 
REMARK    7  A    between atoms: C28_27  and  C29_28 
REMARK    8  A    between atoms: C31_30  and  O11_58 
REMARK    9  A    between atoms: C32_31  and  O12_59 
REMARK   10  A    between atoms: C38_37  and  C39_38 
ROOT
HETATM    1  C1  FK5  3575       0.151  33.731 230.413  1.00 20.00     0.282 C 
HETATM    2  C2  FK5  3575       0.810  33.787 229.061  1.00 20.00     0.187 C 
HETATM    3  C3  FK5  3575       1.857  34.912 229.063  1.00 20.00     0.035 C 
HETATM    4  C4  FK5  3575       2.522  34.957 227.684  1.00 20.00     0.004 C 
HETATM    5  C5  FK5  3575       1.461  35.285 226.631  1.00 20.00     0.020 C 
HETATM    6  C6  FK5  3575       0.395  34.183 226.622  1.00 20.00     0.127 C 
HETATM    7  C8  FK5  3575      -1.473  34.160 228.219  1.00 20.00     0.296 C 
HETATM    8  C9  FK5  3575      -2.479  34.131 227.117  1.00 20.00     0.278 C 
HETATM    9  C10 FK5  3575      -3.912  34.516 227.415  1.00 20.00     0.238 C 
HETATM   10  C11 FK5  3575      -4.538  35.153 226.174  1.00 20.00     0.055 C 
HETATM   11  C12 FK5  3575      -5.994  35.523 226.495  1.00 20.00     0.044 C 
HETATM   12  C13 FK5  3575      -6.711  34.255 226.977  1.00 20.00     0.153 C 
HETATM   13  C14 FK5  3575      -5.947  33.675 228.171  1.00 20.00     0.183 C 
HETATM   14  C15 FK5  3575      -6.653  32.392 228.632  1.00 20.00     0.152 C 
HETATM   15  C16 FK5  3575      -6.171  31.997 230.015  1.00 20.00     0.039 C 
HETATM   16  C17 FK5  3575      -7.048  32.418 231.178  1.00 20.00    -0.012 C 
HETATM   17  C18 FK5  3575      -7.135  31.262 232.183  1.00 20.00     0.037 C 
HETATM   18  C19 FK5  3575      -6.504  31.652 233.497  1.00 20.00    -0.086 C 
HETATM   19  C20 FK5  3575      -5.452  30.997 233.919  1.00 20.00    -0.012 C 
HETATM   20  C21 FK5  3575      -4.767  31.306 235.216  1.00 20.00     0.081 C 
HETATM   21  C22 FK5  3575      -3.365  30.741 235.194  1.00 20.00     0.137 C 
HETATM   22  C23 FK5  3575      -2.238  31.520 234.566  1.00 20.00     0.111 C 
HETATM   23  C24 FK5  3575      -1.219  30.542 233.983  1.00 20.00     0.131 C 
HETATM   24  C25 FK5  3575      -0.833  30.891 232.558  1.00 20.00     0.044 C 
HETATM   25  C26 FK5  3575      -0.553  32.378 232.342  1.00 20.00     0.166 C 
HETATM   26  C35 FK5  3575      -3.775  36.430 225.801  1.00 20.00     0.016 C 
HETATM   27  C36 FK5  3575      -8.463  32.809 230.769  1.00 20.00     0.010 C 
HETATM   28  C37 FK5  3575      -7.102  32.782 234.292  1.00 20.00     0.043 C 
HETATM   29  C41 FK5  3575      -1.948  30.452 231.600  1.00 20.00     0.015 C 
HETATM   30  N7  FK5  3575      -0.156  34.056 227.986  1.00 20.00    -0.331 N 
HETATM   31  O1  FK5  3575      -0.116  32.544 230.966  1.00 20.00    -0.309 OA
HETATM   32  O2  FK5  3575      -0.113  34.758 230.996  1.00 20.00    -0.263 OA
HETATM   33  O3  FK5  3575      -1.890  34.246 229.359  1.00 20.00    -0.264 OA
HETATM   34  O4  FK5  3575      -2.181  33.793 226.002  1.00 20.00    -0.281 OA
HETATM   35  O5  FK5  3575      -4.622  33.340 227.786  1.00 20.00    -0.338 OA
HETATM   36  O9  FK5  3575      -3.152  29.657 235.684  1.00 20.00    -0.297 OA
ENDROOT
BRANCH  25  37
HETATM   37  C27 FK5  3575       0.550  32.840 233.259  1.00 20.00    -0.058 C 
HETATM   38  C28 FK5  3575       0.346  33.842 234.077  1.00 20.00    -0.017 C 
HETATM   39  C42 FK5  3575       1.890  32.150 233.236  1.00 20.00     0.046 C 
BRANCH  38  40
HETATM   40  C29 FK5  3575       1.387  34.201 235.105  1.00 20.00     0.011 C 
HETATM   41  C34 FK5  3575       1.034  33.542 236.440  1.00 20.00     0.011 C 
HETATM   42  C33 FK5  3575       2.091  33.907 237.484  1.00 20.00     0.035 C 
HETATM   43  C32 FK5  3575       2.131  35.425 237.662  1.00 20.00     0.147 C 
HETATM   44  C31 FK5  3575       2.484  36.085 236.326  1.00 20.00     0.150 C 
HETATM   45  C30 FK5  3575       1.426  35.720 235.282  1.00 20.00     0.043 C 
BRANCH  43  46
HETATM   46  O12 FK5  3575       3.118  35.765 238.636  1.00 20.00    -0.393 OA
ATOM     47  H12 FK5  3575       3.889  36.108 238.199  1.00  0.00     0.210 HD
ENDBRANCH  43  46
BRANCH  44  48
HETATM   48  O11 FK5  3575       2.521  37.504 236.491  1.00 20.00    -0.388 OA
HETATM   49  C45 FK5  3575       1.165  37.945 236.579  1.00 20.00     0.202 C 
ENDBRANCH  44  48
ENDBRANCH  38  40
ENDBRANCH  25  37
BRANCH  23  50
HETATM   50  O10 FK5  3575      -0.070  30.462 234.824  1.00 20.00    -0.395 OA
ATOM     51  H10 FK5  3575      -0.019  29.607 235.234  1.00  0.00     0.210 HD
ENDBRANCH  23  50
BRANCH  20  52
HETATM   52  C38 FK5  3575      -5.529  30.651 236.374  1.00 20.00     0.042 C 
BRANCH  52  53
HETATM   53  C39 FK5  3575      -4.976  31.147 237.685  1.00 20.00    -0.036 C 
HETATM   54  C40 FK5  3575      -5.064  30.399 238.757  1.00 20.00     0.007 C 
ENDBRANCH  52  53
ENDBRANCH  20  52
BRANCH   9  55
HETATM   55  O6  FK5  3575      -3.932  35.462 228.486  1.00 20.00    -0.359 OA
ATOM     56  H6  FK5  3575      -3.788  35.006 229.308  1.00  0.00     0.213 HD
ENDBRANCH   9  55
BRANCH  12  57
HETATM   57  O7  FK5  3575      -8.044  34.580 227.374  1.00 20.00    -0.388 OA
HETATM   58  C43 FK5  3575      -8.595  35.400 226.341  1.00 20.00     0.202 C 
ENDBRANCH  12  57
BRANCH  14  59
HETATM   59  O8  FK5  3575      -6.275  31.345 227.713  1.00 20.00    -0.388 OA
HETATM   60  C44 FK5  3575      -6.583  30.103 228.350  1.00 20.00     0.202 C 
ENDBRANCH  14  59
TORSDOF 10
ENDMDL
MODEL 2
REMARK VINA RESULT:      -6.4      2.071      2.976
REMARK  10 active torsions:
REMARK  status: ('A' for Active; 'I' for Inactive)
REMARK    1  A    between atoms: C10_9  and  O6_51 
REMARK    2  A    between atoms: C13_12  and  O7_53 
REMARK    3  A    between atoms: C15_14  and  O8_54 
REMARK    4  A    between atoms: C21_20  and  C38_37 
REMARK    5  A    between atoms: C24_23  and  O10_56 
REMARK    6  A    between atoms: C26_25  and  C27_26 
REMARK    7  A    between atoms: C28_27  and  C29_28 
REMARK    8  A    between atoms: C31_30  and  O11_58 
REMARK    9  A    between atoms: C32_31  and  O12_59 
REMARK   10  A    between atoms: C38_37  and  C39_38 
ROOT
HETATM    1  C1  FK5  3575      -1.250  34.314 229.958  1.00 20.00     0.282 C 
HETATM    2  C2  FK5  3575      -0.136  34.013 228.991  1.00 20.00     0.187 C 
HETATM    3  C3  FK5  3575       0.851  35.191 228.983  1.00 20.00     0.035 C 
HETATM    4  C4  FK5  3575       1.980  34.870 227.998  1.00 20.00     0.004 C 
HETATM    5  C5  FK5  3575       1.388  34.726 226.595  1.00 20.00     0.020 C 
HETATM    6  C6  FK5  3575       0.386  33.566 226.582  1.00 20.00     0.127 C 
HETATM    7  C8  FK5  3575      -1.940  33.839 227.325  1.00 20.00     0.296 C 
HETATM    8  C9  FK5  3575      -2.468  33.350 226.017  1.00 20.00     0.278 C 
HETATM    9  C10 FK5  3575      -3.904  33.645 225.643  1.00 20.00     0.238 C 
HETATM   10  C11 FK5  3575      -4.018  33.781 224.124  1.00 20.00     0.055 C 
HETATM   11  C12 FK5  3575      -5.484  34.067 223.768  1.00 20.00     0.044 C 
HETATM   12  C13 FK5  3575      -6.346  32.945 224.362  1.00 20.00     0.153 C 
HETATM   13  C14 FK5  3575      -6.086  32.864 225.869  1.00 20.00     0.183 C 
HETATM   14  C15 FK5  3575      -6.929  31.722 226.454  1.00 20.00     0.152 C 
HETATM   15  C16 FK5  3575      -6.998  31.843 227.964  1.00 20.00     0.039 C 
HETATM   16  C17 FK5  3575      -8.237  32.509 228.529  1.00 20.00    -0.012 C 
HETATM   17  C18 FK5  3575      -8.706  31.730 229.765  1.00 20.00     0.037 C 
HETATM   18  C19 FK5  3575      -8.600  32.585 231.004  1.00 20.00    -0.086 C 
HETATM   19  C20 FK5  3575      -7.788  32.220 231.964  1.00 20.00    -0.012 C 
HETATM   20  C21 FK5  3575      -7.627  33.000 233.234  1.00 20.00     0.081 C 
HETATM   21  C22 FK5  3575      -6.324  32.618 233.899  1.00 20.00     0.137 C 
HETATM   22  C23 FK5  3575      -5.034  33.280 233.486  1.00 20.00     0.111 C 
HETATM   23  C24 FK5  3575      -3.885  32.289 233.665  1.00 20.00     0.131 C 
HETATM   24  C25 FK5  3575      -2.995  32.209 232.439  1.00 20.00     0.044 C 
HETATM   25  C26 FK5  3575      -2.634  33.572 231.849  1.00 20.00     0.166 C 
HETATM   26  C35 FK5  3575      -3.155  34.951 223.639  1.00 20.00     0.016 C 
HETATM   27  C36 FK5  3575      -9.395  32.588 227.543  1.00 20.00     0.010 C 
HETATM   28  C37 FK5  3575      -9.434  33.833 231.108  1.00 20.00     0.043 C 
HETATM   29  C41 FK5  3575      -3.682  31.366 231.357  1.00 20.00     0.015 C 
HETATM   30  N7  FK5  3575      -0.632  33.816 227.621  1.00 20.00    -0.331 N 
HETATM   31  O1  FK5  3575      -1.717  33.342 230.746  1.00 20.00    -0.309 OA
HETATM   32  O2  FK5  3575      -1.696  35.437 230.028  1.00 20.00    -0.263 OA
HETATM   33  O3  FK5  3575      -2.748  34.235 228.145  1.00 20.00    -0.264 OA
HETATM   34  O4  FK5  3575      -1.784  32.712 225.263  1.00 20.00    -0.281 OA
HETATM   35  O5  FK5  3575      -4.716  32.576 226.112  1.00 20.00    -0.338 OA
HETATM   36  O9  FK5  3575      -6.321  31.777 234.766  1.00 20.00    -0.297 OA
ENDROOT
BRANCH  25  37
HETATM   37  C27 FK5  3575      -1.943  34.423 232.884  1.00 20.00    -0.058 C 
HETATM   38  C28 FK5  3575      -0.786  34.051 233.371  1.00 20.00    -0.017 C 
HETATM   39  C42 FK5  3575      -2.583  35.702 233.359  1.00 20.00     0.046 C 
BRANCH  38  40
HETATM   40  C29 FK5  3575      -0.018  34.975 234.281  1.00 20.00     0.011 C 
HETATM   41  C34 FK5  3575       1.130  35.620 233.501  1.00 20.00     0.011 C 
HETATM   42  C33 FK5  3575       1.909  36.557 234.425  1.00 20.00     0.035 C 
HETATM   43  C32 FK5  3575       2.477  35.761 235.600  1.00 20.00     0.147 C 
HETATM   44  C31 FK5  3575       1.329  35.115 236.380  1.00 20.00     0.150 C 
HETATM   45  C30 FK5  3575       0.549  34.177 235.456  1.00 20.00     0.043 C 
BRANCH  43  46
HETATM   46  O12 FK5  3575       3.204  36.637 236.463  1.00 20.00    -0.393 OA
ATOM     47  H12 FK5  3575       3.418  37.435 235.995  1.00  0.00     0.210 HD
ENDBRANCH  43  46
BRANCH  44  48
HETATM   48  O11 FK5  3575       1.859  34.371 237.478  1.00 20.00    -0.388 OA
HETATM   49  C45 FK5  3575       2.572  33.265 236.921  1.00 20.00     0.202 C 
ENDBRANCH  44  48
ENDBRANCH  38  40
ENDBRANCH  25  37
BRANCH  23  50
HETATM   50  O10 FK5  3575      -3.130  32.609 234.831  1.00 20.00    -0.395 OA
ATOM     51  H10 FK5  3575      -2.200  32.526 234.657  1.00  0.00     0.210 HD
ENDBRANCH  23  50
BRANCH  20  52
HETATM   52  C38 FK5  3575      -8.772  32.663 234.197  1.00 20.00     0.042 C 
BRANCH  52  53
HETATM   53  C39 FK5  3575      -9.582  33.905 234.467  1.00 20.00    -0.036 C 
HETATM   54  C40 FK5  3575      -8.978  35.025 234.777  1.00 20.00     0.007 C 
ENDBRANCH  52  53
ENDBRANCH  20  52
BRANCH   9  55
HETATM   55  O6  FK5  3575      -4.306  34.873 226.254  1.00 20.00    -0.359 OA
ATOM     56  H6  FK5  3575      -3.713  35.075 226.969  1.00  0.00     0.213 HD
ENDBRANCH   9  55
BRANCH  12  57
HETATM   57  O7  FK5  3575      -7.727  33.227 224.129  1.00 20.00    -0.388 OA
HETATM   58  C43 FK5  3575      -7.920  34.614 224.414  1.00 20.00     0.202 C 
ENDBRANCH  12  57
BRANCH  14  59
HETATM   59  O8  FK5  3575      -6.252  30.487 226.137  1.00 20.00    -0.388 OA
HETATM   60  C44 FK5  3575      -6.337  29.658 227.297  1.00 20.00     0.202 C 
ENDBRANCH  14  59
TORSDOF 10
ENDMDL
MODEL 3
REMARK VINA RESULT:      -6.1      2.314      6.993
REMARK  10 active torsions:
REMARK  status: ('A' for Active; 'I' for Inactive)
REMARK    1  A    between atoms: C10_9  and  O6_51 
REMARK    2  A    between atoms: C13_12  and  O7_53 
REMARK    3  A    between atoms: C15_14  and  O8_54 
REMARK    4  A    between atoms: C21_20  and  C38_37 
REMARK    5  A    between atoms: C24_23  and  O10_56 
REMARK    6  A    between atoms: C26_25  and  C27_26 
REMARK    7  A    between atoms: C28_27  and  C29_28 
REMARK    8  A    between atoms: C31_30  and  O11_58 
REMARK    9  A    between atoms: C32_31  and  O12_59 
REMARK   10  A    between atoms: C38_37  and  C39_38 
ROOT
HETATM    1  C1  FK5  3575      -2.730  32.149 232.931  1.00 20.00     0.282 C 
HETATM    2  C2  FK5  3575      -3.804  32.270 233.979  1.00 20.00     0.187 C 
HETATM    3  C3  FK5  3575      -3.555  31.219 235.072  1.00 20.00     0.035 C 
HETATM    4  C4  FK5  3575      -4.651  31.355 236.133  1.00 20.00     0.004 C 
HETATM    5  C5  FK5  3575      -6.007  31.066 235.484  1.00 20.00     0.020 C 
HETATM    6  C6  FK5  3575      -6.271  32.093 234.377  1.00 20.00     0.127 C 
HETATM    7  C8  FK5  3575      -5.351  31.838 232.113  1.00 20.00     0.296 C 
HETATM    8  C9  FK5  3575      -6.709  31.911 231.499  1.00 20.00     0.278 C 
HETATM    9  C10 FK5  3575      -6.910  31.409 230.086  1.00 20.00     0.238 C 
HETATM   10  C11 FK5  3575      -8.329  30.860 229.937  1.00 20.00     0.055 C 
HETATM   11  C12 FK5  3575      -8.513  30.368 228.493  1.00 20.00     0.044 C 
HETATM   12  C13 FK5  3575      -8.190  31.533 227.548  1.00 20.00     0.153 C 
HETATM   13  C14 FK5  3575      -6.776  32.039 227.848  1.00 20.00     0.183 C 
HETATM   14  C15 FK5  3575      -6.468  33.222 226.920  1.00 20.00     0.152 C 
HETATM   15  C16 FK5  3575      -4.978  33.508 226.912  1.00 20.00     0.039 C 
HETATM   16  C17 FK5  3575      -4.187  32.917 225.761  1.00 20.00    -0.012 C 
HETATM   17  C18 FK5  3575      -3.178  33.960 225.261  1.00 20.00     0.037 C 
HETATM   18  C19 FK5  3575      -1.765  33.482 225.487  1.00 20.00    -0.086 C 
HETATM   19  C20 FK5  3575      -0.984  34.158 226.292  1.00 20.00    -0.012 C 
HETATM   20  C21 FK5  3575       0.436  33.765 226.567  1.00 20.00     0.081 C 
HETATM   21  C22 FK5  3575       0.901  34.418 227.849  1.00 20.00     0.137 C 
HETATM   22  C23 FK5  3575       0.606  33.779 229.182  1.00 20.00     0.111 C 
HETATM   23  C24 FK5  3575       0.450  34.873 230.236  1.00 20.00     0.131 C 
HETATM   24  C25 FK5  3575      -0.801  34.693 231.075  1.00 20.00     0.044 C 
HETATM   25  C26 FK5  3575      -1.028  33.256 231.544  1.00 20.00     0.166 C 
HETATM   26  C35 FK5  3575      -8.534  29.677 230.891  1.00 20.00     0.016 C 
HETATM   27  C36 FK5  3575      -5.051  32.480 224.584  1.00 20.00     0.010 C 
HETATM   28  C37 FK5  3575      -1.286  32.243 224.779  1.00 20.00     0.043 C 
HETATM   29  C41 FK5  3575      -2.028  35.153 230.276  1.00 20.00     0.015 C 
HETATM   30  N7  FK5  3575      -5.146  32.048 233.422  1.00 20.00    -0.331 N 
HETATM   31  O1  FK5  3575      -2.203  33.255 232.398  1.00 20.00    -0.309 OA
HETATM   32  O2  FK5  3575      -2.339  31.054 232.596  1.00 20.00    -0.263 OA
HETATM   33  O3  FK5  3575      -4.410  31.612 231.373  1.00 20.00    -0.264 OA
HETATM   34  O4  FK5  3575      -7.644  32.377 232.095  1.00 20.00    -0.281 OA
HETATM   35  O5  FK5  3575      -6.696  32.494 229.192  1.00 20.00    -0.338 OA
HETATM   36  O9  FK5  3575       1.512  35.459 227.800  1.00 20.00    -0.297 OA
ENDROOT
BRANCH  25  37
HETATM   37  C27 FK5  3575       0.155  32.776 232.346  1.00 20.00    -0.058 C 
HETATM   38  C28 FK5  3575       0.454  33.354 233.482  1.00 20.00    -0.017 C 
HETATM   39  C42 FK5  3575       0.993  31.630 231.841  1.00 20.00     0.046 C 
BRANCH  38  40
HETATM   40  C29 FK5  3575       1.531  32.775 234.362  1.00 20.00     0.011 C 
HETATM   41  C34 FK5  3575       0.896  31.864 235.414  1.00 20.00     0.011 C 
HETATM   42  C33 FK5  3575       1.989  31.277 236.307  1.00 20.00     0.035 C 
HETATM   43  C32 FK5  3575       2.742  32.410 237.005  1.00 20.00     0.147 C 
HETATM   44  C31 FK5  3575       3.378  33.322 235.953  1.00 20.00     0.150 C 
HETATM   45  C30 FK5  3575       2.284  33.910 235.059  1.00 20.00     0.043 C 
BRANCH  43  46
HETATM   46  O12 FK5  3575       3.764  31.861 237.839  1.00 20.00    -0.393 OA
ATOM     47  H12 FK5  3575       3.408  31.136 238.339  1.00  0.00     0.210 HD
ENDBRANCH  43  46
BRANCH  44  48
HETATM   48  O11 FK5  3575       4.082  34.382 236.605  1.00 20.00    -0.388 OA
HETATM   49  C45 FK5  3575       3.361  35.584 236.332  1.00 20.00     0.202 C 
ENDBRANCH  44  48
ENDBRANCH  38  40
ENDBRANCH  25  37
BRANCH  23  50
HETATM   50  O10 FK5  3575       1.615  34.942 231.056  1.00 20.00    -0.395 OA
ATOM     51  H10 FK5  3575       1.973  35.822 231.049  1.00  0.00     0.210 HD
ENDBRANCH  23  50
BRANCH  20  52
HETATM   52  C38 FK5  3575       1.338  34.253 225.427  1.00 20.00     0.042 C 
BRANCH  52  53
HETATM   53  C39 FK5  3575       2.186  33.109 224.933  1.00 20.00    -0.036 C 
HETATM   54  C40 FK5  3575       2.247  31.995 225.620  1.00 20.00     0.007 C 
ENDBRANCH  52  53
ENDBRANCH  20  52
BRANCH   9  55
HETATM   55  O6  FK5  3575      -5.973  30.362 229.822  1.00 20.00    -0.359 OA
ATOM     56  H6  FK5  3575      -6.387  29.523 229.988  1.00  0.00     0.213 HD
ENDBRANCH   9  55
BRANCH  12  57
HETATM   57  O7  FK5  3575      -8.261  31.086 226.194  1.00 20.00    -0.388 OA
HETATM   58  C43 FK5  3575      -7.611  29.814 226.143  1.00 20.00     0.202 C 
ENDBRANCH  12  57
BRANCH  14  59
HETATM   59  O8  FK5  3575      -7.140  34.377 227.466  1.00 20.00    -0.388 OA
HETATM   60  C44 FK5  3575      -7.685  35.100 226.361  1.00 20.00     0.202 C 
ENDBRANCH  14  59
TORSDOF 10
ENDMDL
MODEL 4
REMARK VINA RESULT:      -5.9      2.568      6.957
REMARK  10 active torsions:
REMARK  status: ('A' for Active; 'I' for Inactive)
REMARK    1  A    between atoms: C10_9  and  O6_51 
REMARK    2  A    between atoms: C13_12  and  O7_53 
REMARK    3  A    between atoms: C15_14  and  O8_54 
REMARK    4  A    between atoms: C21_20  and  C38_37 
REMARK    5  A    between atoms: C24_23  and  O10_56 
REMARK    6  A    between atoms: C26_25  and  C27_26 
REMARK    7  A    between atoms: C28_27  and  C29_28 
REMARK    8  A    between atoms: C31_30  and  O11_58 
REMARK    9  A    between atoms: C32_31  and  O12_59 
REMARK   10  A    between atoms: C38_37  and  C39_38 
ROOT
HETATM    1  C1  FK5  3575      -4.140  33.052 232.043  1.00 20.00     0.282 C 
HETATM    2  C2  FK5  3575      -5.439  33.550 232.620  1.00 20.00     0.187 C 
HETATM    3  C3  FK5  3575      -5.739  32.780 233.915  1.00 20.00     0.035 C 
HETATM    4  C4  FK5  3575      -7.059  33.299 234.493  1.00 20.00     0.004 C 
HETATM    5  C5  FK5  3575      -8.182  33.018 233.492  1.00 20.00     0.020 C 
HETATM    6  C6  FK5  3575      -7.897  33.764 232.183  1.00 20.00     0.127 C 
HETATM    7  C8  FK5  3575      -6.398  32.854 230.462  1.00 20.00     0.296 C 
HETATM    8  C9  FK5  3575      -7.465  32.931 229.421  1.00 20.00     0.278 C 
HETATM    9  C10 FK5  3575      -7.318  32.122 228.151  1.00 20.00     0.238 C 
HETATM   10  C11 FK5  3575      -8.702  31.721 227.639  1.00 20.00     0.055 C 
HETATM   11  C12 FK5  3575      -8.528  30.913 226.344  1.00 20.00     0.044 C 
HETATM   12  C13 FK5  3575      -7.718  31.764 225.357  1.00 20.00     0.153 C 
HETATM   13  C14 FK5  3575      -6.393  32.161 226.015  1.00 20.00     0.183 C 
HETATM   14  C15 FK5  3575      -5.599  33.035 225.034  1.00 20.00     0.152 C 
HETATM   15  C16 FK5  3575      -4.151  33.136 225.477  1.00 20.00     0.039 C 
HETATM   16  C17 FK5  3575      -3.175  32.193 224.801  1.00 20.00    -0.012 C 
HETATM   17  C18 FK5  3575      -1.883  32.956 224.480  1.00 20.00     0.037 C 
HETATM   18  C19 FK5  3575      -0.724  32.389 225.262  1.00 20.00    -0.086 C 
HETATM   19  C20 FK5  3575      -0.111  33.147 226.135  1.00 20.00    -0.012 C 
HETATM   20  C21 FK5  3575       1.057  32.673 226.948  1.00 20.00     0.081 C 
HETATM   21  C22 FK5  3575       1.225  33.564 228.158  1.00 20.00     0.137 C 
HETATM   22  C23 FK5  3575       0.423  33.311 229.408  1.00 20.00     0.111 C 
HETATM   23  C24 FK5  3575       0.165  34.642 230.113  1.00 20.00     0.131 C 
HETATM   24  C25 FK5  3575      -1.293  34.819 230.495  1.00 20.00     0.044 C 
HETATM   25  C26 FK5  3575      -1.920  33.579 231.129  1.00 20.00     0.166 C 
HETATM   26  C35 FK5  3575      -9.408  30.842 228.677  1.00 20.00     0.016 C 
HETATM   27  C36 FK5  3575      -3.706  31.582 223.510  1.00 20.00     0.010 C 
HETATM   28  C37 FK5  3575      -0.296  30.967 225.014  1.00 20.00     0.043 C 
HETATM   29  C41 FK5  3575      -2.107  35.207 229.253  1.00 20.00     0.015 C 
HETATM   30  N7  FK5  3575      -6.565  33.356 231.695  1.00 20.00    -0.331 N 
HETATM   31  O1  FK5  3575      -3.277  33.925 231.517  1.00 20.00    -0.309 OA
HETATM   32  O2  FK5  3575      -3.882  31.871 232.081  1.00 20.00    -0.263 OA
HETATM   33  O3  FK5  3575      -5.338  32.346 230.144  1.00 20.00    -0.264 OA
HETATM   34  O4  FK5  3575      -8.430  33.633 229.562  1.00 20.00    -0.281 OA
HETATM   35  O5  FK5  3575      -6.640  32.921 227.189  1.00 20.00    -0.338 OA
HETATM   36  O9  FK5  3575       2.009  34.483 228.117  1.00 20.00    -0.297 OA
ENDROOT
BRANCH  25  37
HETATM   37  C27 FK5  3575      -1.151  33.178 232.363  1.00 20.00    -0.058 C 
HETATM   38  C28 FK5  3575      -1.013  34.024 233.352  1.00 20.00    -0.017 C 
HETATM   39  C42 FK5  3575      -0.541  31.803 232.457  1.00 20.00     0.046 C 
BRANCH  38  40
HETATM   40  C29 FK5  3575      -0.388  33.574 234.647  1.00 20.00     0.011 C 
HETATM   41  C34 FK5  3575      -1.197  34.125 235.823  1.00 20.00     0.011 C 
HETATM   42  C33 FK5  3575      -0.563  33.669 237.137  1.00 20.00     0.035 C 
HETATM   43  C32 FK5  3575       0.873  34.189 237.220  1.00 20.00     0.147 C 
HETATM   44  C31 FK5  3575       1.682  33.637 236.044  1.00 20.00     0.150 C 
HETATM   45  C30 FK5  3575       1.048  34.094 234.728  1.00 20.00     0.043 C 
BRANCH  43  46
HETATM   46  O12 FK5  3575       1.465  33.762 238.447  1.00 20.00    -0.393 OA
ATOM     47  H12 FK5  3575       2.206  33.198 238.261  1.00  0.00     0.210 HD
ENDBRANCH  43  46
BRANCH  44  48
HETATM   48  O11 FK5  3575       3.024  34.124 236.120  1.00 20.00    -0.388 OA
HETATM   49  C45 FK5  3575       2.986  35.501 235.742  1.00 20.00     0.202 C 
ENDBRANCH  44  48
ENDBRANCH  38  40
ENDBRANCH  25  37
BRANCH  23  50
HETATM   50  O10 FK5  3575       1.016  34.776 231.249  1.00 20.00    -0.395 OA
ATOM     51  H10 FK5  3575       0.500  34.825 232.045  1.00  0.00     0.210 HD
ENDBRANCH  23  50
BRANCH  20  52
HETATM   52  C38 FK5  3575       2.338  32.757 226.110  1.00 20.00     0.042 C 
BRANCH  52  53
HETATM   53  C39 FK5  3575       3.129  31.484 226.272  1.00 20.00    -0.036 C 
HETATM   54  C40 FK5  3575       2.634  30.491 226.968  1.00 20.00     0.007 C 
ENDBRANCH  52  53
ENDBRANCH  20  52
BRANCH   9  55
HETATM   55  O6  FK5  3575      -6.562  30.941 228.431  1.00 20.00    -0.359 OA
ATOM     56  H6  FK5  3575      -6.177  31.014 229.296  1.00  0.00     0.213 HD
ENDBRANCH   9  55
BRANCH  12  57
HETATM   57  O7  FK5  3575      -7.457  31.008 224.174  1.00 20.00    -0.388 OA
HETATM   58  C43 FK5  3575      -7.235  29.657 224.586  1.00 20.00     0.202 C 
ENDBRANCH  12  57
BRANCH  14  59
HETATM   59  O8  FK5  3575      -6.172  34.359 225.084  1.00 20.00    -0.388 OA
HETATM   60  C44 FK5  3575      -5.099  35.282 224.887  1.00 20.00     0.202 C 
ENDBRANCH  14  59
TORSDOF 10
ENDMDL
MODEL 5
REMARK VINA RESULT:      -5.7      3.606      5.860
REMARK  10 active torsions:
REMARK  status: ('A' for Active; 'I' for Inactive)
REMARK    1  A    between atoms: C10_9  and  O6_51 
REMARK    2  A    between atoms: C13_12  and  O7_53 
REMARK    3  A    between atoms: C15_14  and  O8_54 
REMARK    4  A    between atoms: C21_20  and  C38_37 
REMARK    5  A    between atoms: C24_23  and  O10_56 
REMARK    6  A    between atoms: C26_25  and  C27_26 
REMARK    7  A    between atoms: C28_27  and  C29_28 
REMARK    8  A    between atoms: C31_30  and  O11_58 
REMARK    9  A    between atoms: C32_31  and  O12_59 
REMARK   10  A    between atoms: C38_37  and  C39_38 
ROOT
HETATM    1  C1  FK5  3575      -2.392  38.037 228.540  1.00 20.00     0.282 C 
HETATM    2  C2  FK5  3575      -1.499  38.981 227.779  1.00 20.00     0.187 C 
HETATM    3  C3  FK5  3575      -1.086  40.134 228.707  1.00 20.00     0.035 C 
HETATM    4  C4  FK5  3575      -0.176  41.085 227.922  1.00 20.00     0.004 C 
HETATM    5  C5  FK5  3575      -0.965  41.668 226.747  1.00 20.00     0.020 C 
HETATM    6  C6  FK5  3575      -1.403  40.533 225.815  1.00 20.00     0.127 C 
HETATM    7  C8  FK5  3575      -3.415  39.190 226.247  1.00 20.00     0.296 C 
HETATM    8  C9  FK5  3575      -3.988  39.529 224.911  1.00 20.00     0.278 C 
HETATM    9  C10 FK5  3575      -5.469  39.328 224.669  1.00 20.00     0.238 C 
HETATM   10  C11 FK5  3575      -5.966  40.368 223.665  1.00 20.00     0.055 C 
HETATM   11  C12 FK5  3575      -7.467  40.137 223.426  1.00 20.00     0.044 C 
HETATM   12  C13 FK5  3575      -7.658  38.684 222.971  1.00 20.00     0.153 C 
HETATM   13  C14 FK5  3575      -7.054  37.750 224.023  1.00 20.00     0.183 C 
HETATM   14  C15 FK5  3575      -7.224  36.299 223.550  1.00 20.00     0.152 C 
HETATM   15  C16 FK5  3575      -6.991  35.342 224.704  1.00 20.00     0.039 C 
HETATM   16  C17 FK5  3575      -8.230  34.832 225.414  1.00 20.00    -0.012 C 
HETATM   17  C18 FK5  3575      -8.061  33.334 225.701  1.00 20.00     0.037 C 
HETATM   18  C19 FK5  3575      -8.023  33.080 227.188  1.00 20.00    -0.086 C 
HETATM   19  C20 FK5  3575      -6.939  32.577 227.722  1.00 20.00    -0.012 C 
HETATM   20  C21 FK5  3575      -6.816  32.280 229.187  1.00 20.00     0.081 C 
HETATM   21  C22 FK5  3575      -5.354  32.177 229.560  1.00 20.00     0.137 C 
HETATM   22  C23 FK5  3575      -4.559  33.417 229.880  1.00 20.00     0.111 C 
HETATM   23  C24 FK5  3575      -3.105  33.197 229.466  1.00 20.00     0.131 C 
HETATM   24  C25 FK5  3575      -2.557  34.350 228.646  1.00 20.00     0.044 C 
HETATM   25  C26 FK5  3575      -2.906  35.727 229.209  1.00 20.00     0.166 C 
HETATM   26  C35 FK5  3575      -5.768  41.778 224.231  1.00 20.00     0.016 C 
HETATM   27  C36 FK5  3575      -9.516  35.028 224.620  1.00 20.00     0.010 C 
HETATM   28  C37 FK5  3575      -9.235  33.406 228.020  1.00 20.00     0.043 C 
HETATM   29  C41 FK5  3575      -3.082  34.254 227.207  1.00 20.00     0.015 C 
HETATM   30  N7  FK5  3575      -2.174  39.552 226.604  1.00 20.00    -0.331 N 
HETATM   31  O1  FK5  3575      -2.248  36.719 228.375  1.00 20.00    -0.309 OA
HETATM   32  O2  FK5  3575      -3.215  38.478 229.309  1.00 20.00    -0.263 OA
HETATM   33  O3  FK5  3575      -4.106  38.535 227.006  1.00 20.00    -0.264 OA
HETATM   34  O4  FK5  3575      -3.298  39.939 224.017  1.00 20.00    -0.281 OA
HETATM   35  O5  FK5  3575      -5.665  38.012 224.168  1.00 20.00    -0.338 OA
HETATM   36  O9  FK5  3575      -4.825  31.092 229.600  1.00 20.00    -0.297 OA
ENDROOT
BRANCH  25  37
HETATM   37  C27 FK5  3575      -2.391  35.862 230.619  1.00 20.00    -0.058 C 
HETATM   38  C28 FK5  3575      -1.128  35.639 230.879  1.00 20.00    -0.017 C 
HETATM   39  C42 FK5  3575      -3.331  36.251 231.731  1.00 20.00     0.046 C 
BRANCH  38  40
HETATM   40  C29 FK5  3575      -0.577  35.929 232.251  1.00 20.00     0.011 C 
HETATM   41  C34 FK5  3575       0.928  35.656 232.266  1.00 20.00     0.011 C 
HETATM   42  C33 FK5  3575       1.486  35.950 233.659  1.00 20.00     0.035 C 
HETATM   43  C32 FK5  3575       0.796  35.051 234.686  1.00 20.00     0.147 C 
HETATM   44  C31 FK5  3575      -0.710  35.324 234.672  1.00 20.00     0.150 C 
HETATM   45  C30 FK5  3575      -1.268  35.029 233.278  1.00 20.00     0.043 C 
BRANCH  43  46
HETATM   46  O12 FK5  3575       1.317  35.326 235.987  1.00 20.00    -0.393 OA
ATOM     47  H12 FK5  3575       0.776  35.981 236.412  1.00  0.00     0.210 HD
ENDBRANCH  43  46
BRANCH  44  48
HETATM   48  O11 FK5  3575      -1.355  34.483 235.631  1.00 20.00    -0.388 OA
HETATM   49  C45 FK5  3575      -2.367  35.273 236.257  1.00 20.00     0.202 C 
ENDBRANCH  44  48
ENDBRANCH  38  40
ENDBRANCH  25  37
BRANCH  23  50
HETATM   50  O10 FK5  3575      -2.295  32.950 230.614  1.00 20.00    -0.395 OA
ATOM     51  H10 FK5  3575      -2.489  33.579 231.298  1.00  0.00     0.210 HD
ENDBRANCH  23  50
BRANCH  20  52
HETATM   52  C38 FK5  3575      -7.486  30.938 229.501  1.00 20.00     0.042 C 
BRANCH  52  53
HETATM   53  C39 FK5  3575      -8.281  31.059 230.775  1.00 20.00    -0.036 C 
HETATM   54  C40 FK5  3575      -8.356  32.212 231.392  1.00 20.00     0.007 C 
ENDBRANCH  52  53
ENDBRANCH  20  52
BRANCH   9  55
HETATM   55  O6  FK5  3575      -6.172  39.495 225.903  1.00 20.00    -0.359 OA
ATOM     56  H6  FK5  3575      -5.974  40.352 226.262  1.00  0.00     0.213 HD
ENDBRANCH   9  55
BRANCH  12  57
HETATM   57  O7  FK5  3575      -9.052  38.407 222.829  1.00 20.00    -0.388 OA
HETATM   58  C43 FK5  3575      -9.704  38.960 223.974  1.00 20.00     0.202 C 
ENDBRANCH  12  57
BRANCH  14  59
HETATM   59  O8  FK5  3575      -6.205  36.054 222.556  1.00 20.00    -0.388 OA
HETATM   60  C44 FK5  3575      -5.847  34.675 222.662  1.00 20.00     0.202 C 
ENDBRANCH  14  59
TORSDOF 10
ENDMDL
MODEL 6
REMARK VINA RESULT:      -5.5      2.720      8.357
REMARK  10 active torsions:
REMARK  status: ('A' for Active; 'I' for Inactive)
REMARK    1  A    between atoms: C10_9  and  O6_51 
REMARK    2  A    between atoms: C13_12  and  O7_53 
REMARK    3  A    between atoms: C15_14  and  O8_54 
REMARK    4  A    between atoms: C21_20  and  C38_37 
REMARK    5  A    between atoms: C24_23  and  O10_56 
REMARK    6  A    between atoms: C26_25  and  C27_26 
REMARK    7  A    between atoms: C28_27  and  C29_28 
REMARK    8  A    between atoms: C31_30  and  O11_58 
REMARK    9  A    between atoms: C32_31  and  O12_59 
REMARK   10  A    between atoms: C38_37  and  C39_38 
ROOT
HETATM    1  C1  FK5  3575      -3.738  33.547 229.430  1.00 20.00     0.282 C 
HETATM    2  C2  FK5  3575      -4.469  32.450 228.703  1.00 20.00     0.187 C 
HETATM    3  C3  FK5  3575      -5.430  33.081 227.683  1.00 20.00     0.035 C 
HETATM    4  C4  FK5  3575      -6.164  31.955 226.949  1.00 20.00     0.004 C 
HETATM    5  C5  FK5  3575      -6.990  31.158 227.961  1.00 20.00     0.020 C 
HETATM    6  C6  FK5  3575      -6.053  30.532 229.001  1.00 20.00     0.127 C 
HETATM    7  C8  FK5  3575      -5.235  31.788 230.947  1.00 20.00     0.296 C 
HETATM    8  C9  FK5  3575      -5.778  30.771 231.895  1.00 20.00     0.278 C 
HETATM    9  C10 FK5  3575      -5.967  31.143 233.350  1.00 20.00     0.238 C 
HETATM   10  C11 FK5  3575      -7.152  30.365 233.924  1.00 20.00     0.055 C 
HETATM   11  C12 FK5  3575      -7.317  30.748 235.403  1.00 20.00     0.044 C 
HETATM   12  C13 FK5  3575      -5.985  30.479 236.116  1.00 20.00     0.153 C 
HETATM   13  C14 FK5  3575      -4.874  31.253 235.402  1.00 20.00     0.183 C 
HETATM   14  C15 FK5  3575      -3.540  30.958 236.102  1.00 20.00     0.152 C 
HETATM   15  C16 FK5  3575      -2.493  31.973 235.683  1.00 20.00     0.039 C 
HETATM   16  C17 FK5  3575      -2.271  33.138 236.628  1.00 20.00    -0.012 C 
HETATM   17  C18 FK5  3575      -0.765  33.411 236.741  1.00 20.00     0.037 C 
HETATM   18  C19 FK5  3575      -0.429  34.773 236.187  1.00 20.00    -0.086 C 
HETATM   19  C20 FK5  3575       0.358  34.861 235.144  1.00 20.00    -0.012 C 
HETATM   20  C21 FK5  3575       0.756  36.172 234.533  1.00 20.00     0.081 C 
HETATM   21  C22 FK5  3575       1.242  35.943 233.120  1.00 20.00     0.137 C 
HETATM   22  C23 FK5  3575       0.259  35.862 231.979  1.00 20.00     0.111 C 
HETATM   23  C24 FK5  3575       0.813  34.920 230.911  1.00 20.00     0.131 C 
HETATM   24  C25 FK5  3575      -0.210  33.894 230.460  1.00 20.00     0.044 C 
HETATM   25  C26 FK5  3575      -1.598  34.479 230.201  1.00 20.00     0.166 C 
HETATM   26  C35 FK5  3575      -8.435  30.735 233.172  1.00 20.00     0.016 C 
HETATM   27  C36 FK5  3575      -2.825  32.907 238.028  1.00 20.00     0.010 C 
HETATM   28  C37 FK5  3575      -1.001  35.998 236.849  1.00 20.00     0.043 C 
HETATM   29  C41 FK5  3575      -0.327  32.786 231.514  1.00 20.00     0.015 C 
HETATM   30  N7  FK5  3575      -5.254  31.608 229.618  1.00 20.00    -0.331 N 
HETATM   31  O1  FK5  3575      -2.437  33.405 229.698  1.00 20.00    -0.309 OA
HETATM   32  O2  FK5  3575      -4.329  34.555 229.745  1.00 20.00    -0.263 OA
HETATM   33  O3  FK5  3575      -4.732  32.790 231.424  1.00 20.00    -0.264 OA
HETATM   34  O4  FK5  3575      -6.051  29.658 231.533  1.00 20.00    -0.281 OA
HETATM   35  O5  FK5  3575      -4.772  30.825 234.051  1.00 20.00    -0.338 OA
HETATM   36  O9  FK5  3575       2.425  35.826 232.908  1.00 20.00    -0.297 OA
ENDROOT
BRANCH  25  37
HETATM   37  C27 FK5  3575      -1.522  35.564 229.158  1.00 20.00    -0.058 C 
HETATM   38  C28 FK5  3575      -1.913  36.779 229.446  1.00 20.00    -0.017 C 
HETATM   39  C42 FK5  3575      -0.996  35.249 227.781  1.00 20.00     0.046 C 
BRANCH  38  40
HETATM   40  C29 FK5  3575      -1.688  37.897 228.461  1.00 20.00     0.011 C 
HETATM   41  C34 FK5  3575      -1.103  39.109 229.190  1.00 20.00     0.011 C 
HETATM   42  C33 FK5  3575      -0.875  40.244 228.191  1.00 20.00     0.035 C 
HETATM   43  C32 FK5  3575      -2.206  40.633 227.547  1.00 20.00     0.147 C 
HETATM   44  C31 FK5  3575      -2.792  39.421 226.817  1.00 20.00     0.150 C 
HETATM   45  C30 FK5  3575      -3.020  38.285 227.817  1.00 20.00     0.043 C 
BRANCH  43  46
HETATM   46  O12 FK5  3575      -1.992  41.692 226.613  1.00 20.00    -0.393 OA
ATOM     47  H12 FK5  3575      -1.127  42.061 226.746  1.00  0.00     0.210 HD
ENDBRANCH  43  46
BRANCH  44  48
HETATM   48  O11 FK5  3575      -4.036  39.784 226.216  1.00 20.00    -0.388 OA
HETATM   49  C45 FK5  3575      -4.080  39.143 224.940  1.00 20.00     0.202 C 
ENDBRANCH  44  48
ENDBRANCH  38  40
ENDBRANCH  25  37
BRANCH  23  50
HETATM   50  O10 FK5  3575       1.317  35.667 229.805  1.00 20.00    -0.395 OA
ATOM     51  H10 FK5  3575       2.085  35.241 229.441  1.00  0.00     0.210 HD
ENDBRANCH  23  50
BRANCH  20  52
HETATM   52  C38 FK5  3575       1.903  36.791 235.339  1.00 20.00     0.042 C 
BRANCH  52  53
HETATM   53  C39 FK5  3575       2.587  35.718 236.147  1.00 20.00    -0.036 C 
HETATM   54  C40 FK5  3575       3.875  35.791 236.374  1.00 20.00     0.007 C 
ENDBRANCH  52  53
ENDBRANCH  20  52
BRANCH   9  55
HETATM   55  O6  FK5  3575      -6.237  32.543 233.445  1.00 20.00    -0.359 OA
ATOM     56  H6  FK5  3575      -6.373  32.774 234.357  1.00  0.00     0.213 HD
ENDBRANCH   9  55
BRANCH  12  57
HETATM   57  O7  FK5  3575      -6.073  30.911 237.474  1.00 20.00    -0.388 OA
HETATM   58  C43 FK5  3575      -6.326  29.747 238.263  1.00 20.00     0.202 C 
ENDBRANCH  12  57
BRANCH  14  59
HETATM   59  O8  FK5  3575      -3.102  29.657 235.654  1.00 20.00    -0.388 OA
HETATM   60  C44 FK5  3575      -1.682  29.723 235.516  1.00 20.00     0.202 C 
ENDBRANCH  14  59
TORSDOF 10
ENDMDL
MODEL 7
REMARK VINA RESULT:      -5.4      3.770      8.789
REMARK  10 active torsions:
REMARK  status: ('A' for Active; 'I' for Inactive)
REMARK    1  A    between atoms: C10_9  and  O6_51 
REMARK    2  A    between atoms: C13_12  and  O7_53 
REMARK    3  A    between atoms: C15_14  and  O8_54 
REMARK    4  A    between atoms: C21_20  and  C38_37 
REMARK    5  A    between atoms: C24_23  and  O10_56 
REMARK    6  A    between atoms: C26_25  and  C27_26 
REMARK    7  A    between atoms: C28_27  and  C29_28 
REMARK    8  A    between atoms: C31_30  and  O11_58 
REMARK    9  A    between atoms: C32_31  and  O12_59 
REMARK   10  A    between atoms: C38_37  and  C39_38 
ROOT
HETATM    1  C1  FK5  3575      -4.379  33.872 227.688  1.00 20.00     0.282 C 
HETATM    2  C2  FK5  3575      -5.552  32.971 227.969  1.00 20.00     0.187 C 
HETATM    3  C3  FK5  3575      -5.110  31.509 227.803  1.00 20.00     0.035 C 
HETATM    4  C4  FK5  3575      -6.311  30.604 228.096  1.00 20.00     0.004 C 
HETATM    5  C5  FK5  3575      -7.413  30.896 227.074  1.00 20.00     0.020 C 
HETATM    6  C6  FK5  3575      -7.859  32.357 227.209  1.00 20.00     0.127 C 
HETATM    7  C8  FK5  3575      -6.640  34.200 226.134  1.00 20.00     0.296 C 
HETATM    8  C9  FK5  3575      -7.866  34.655 225.414  1.00 20.00     0.278 C 
HETATM    9  C10 FK5  3575      -7.722  35.565 224.213  1.00 20.00     0.238 C 
HETATM   10  C11 FK5  3575      -8.858  35.292 223.228  1.00 20.00     0.055 C 
HETATM   11  C12 FK5  3575      -8.699  36.235 222.025  1.00 20.00     0.044 C 
HETATM   12  C13 FK5  3575      -8.658  37.675 222.551  1.00 20.00     0.153 C 
HETATM   13  C14 FK5  3575      -7.531  37.797 223.580  1.00 20.00     0.183 C 
HETATM   14  C15 FK5  3575      -7.512  39.233 224.123  1.00 20.00     0.152 C 
HETATM   15  C16 FK5  3575      -6.205  39.503 224.844  1.00 20.00     0.039 C 
HETATM   16  C17 FK5  3575      -5.133  40.220 224.046  1.00 20.00    -0.012 C 
HETATM   17  C18 FK5  3575      -4.462  41.271 224.940  1.00 20.00     0.037 C 
HETATM   18  C19 FK5  3575      -3.009  40.932 225.159  1.00 20.00    -0.086 C 
HETATM   19  C20 FK5  3575      -2.591  40.671 226.372  1.00 20.00    -0.012 C 
HETATM   20  C21 FK5  3575      -1.164  40.337 226.687  1.00 20.00     0.081 C 
HETATM   21  C22 FK5  3575      -1.092  39.638 228.026  1.00 20.00     0.137 C 
HETATM   22  C23 FK5  3575      -1.323  38.151 228.123  1.00 20.00     0.111 C 
HETATM   23  C24 FK5  3575      -1.950  37.832 229.480  1.00 20.00     0.131 C 
HETATM   24  C25 FK5  3575      -3.167  36.935 229.356  1.00 20.00     0.044 C 
HETATM   25  C26 FK5  3575      -2.972  35.758 228.401  1.00 20.00     0.166 C 
HETATM   26  C35 FK5  3575      -8.784  33.843 222.732  1.00 20.00     0.016 C 
HETATM   27  C36 FK5  3575      -5.661  40.915 222.797  1.00 20.00     0.010 C 
HETATM   28  C37 FK5  3575      -2.074  40.906 223.980  1.00 20.00     0.043 C 
HETATM   29  C41 FK5  3575      -4.371  37.762 228.886  1.00 20.00     0.015 C 
HETATM   30  N7  FK5  3575      -6.674  33.223 227.053  1.00 20.00    -0.331 N 
HETATM   31  O1  FK5  3575      -4.178  34.949 228.453  1.00 20.00    -0.309 OA
HETATM   32  O2  FK5  3575      -3.618  33.602 226.787  1.00 20.00    -0.263 OA
HETATM   33  O3  FK5  3575      -5.596  34.775 225.887  1.00 20.00    -0.264 OA
HETATM   34  O4  FK5  3575      -8.965  34.330 225.776  1.00 20.00    -0.281 OA
HETATM   35  O5  FK5  3575      -7.764  36.912 224.666  1.00 20.00    -0.338 OA
HETATM   36  O9  FK5  3575      -0.849  40.279 229.020  1.00 20.00    -0.297 OA
ENDROOT
BRANCH  25  37
HETATM   37  C27 FK5  3575      -1.804  34.915 228.843  1.00 20.00    -0.058 C 
HETATM   38  C28 FK5  3575      -1.837  34.304 230.000  1.00 20.00    -0.017 C 
HETATM   39  C42 FK5  3575      -0.595  34.775 227.953  1.00 20.00     0.046 C 
BRANCH  38  40
HETATM   40  C29 FK5  3575      -0.746  33.333 230.373  1.00 20.00     0.011 C 
HETATM   41  C34 FK5  3575      -1.291  31.905 230.313  1.00 20.00     0.011 C 
HETATM   42  C33 FK5  3575      -0.184  30.920 230.692  1.00 20.00     0.035 C 
HETATM   43  C32 FK5  3575       0.303  31.220 232.110  1.00 20.00     0.147 C 
HETATM   44  C31 FK5  3575       0.849  32.649 232.170  1.00 20.00     0.150 C 
HETATM   45  C30 FK5  3575      -0.259  33.634 231.791  1.00 20.00     0.043 C 
BRANCH  43  46
HETATM   46  O12 FK5  3575       1.338  30.300 232.463  1.00 20.00    -0.393 OA
ATOM     47  H12 FK5  3575       1.994  30.284 231.776  1.00  0.00     0.210 HD
ENDBRANCH  43  46
BRANCH  44  48
HETATM   48  O11 FK5  3575       1.303  32.929 233.495  1.00 20.00    -0.388 OA
HETATM   49  C45 FK5  3575       0.138  33.106 234.303  1.00 20.00     0.202 C 
ENDBRANCH  44  48
ENDBRANCH  38  40
ENDBRANCH  25  37
BRANCH  23  50
HETATM   50  O10 FK5  3575      -0.977  37.264 230.355  1.00 20.00    -0.395 OA
ATOM     51  H10 FK5  3575      -0.730  37.890 231.025  1.00  0.00     0.210 HD
ENDBRANCH  23  50
BRANCH  20  52
HETATM   52  C38 FK5  3575      -0.337  41.625 226.775  1.00 20.00     0.042 C 
BRANCH  52  53
HETATM   53  C39 FK5  3575       1.097  41.327 226.420  1.00 20.00    -0.036 C 
HETATM   54  C40 FK5  3575       2.044  41.522 227.304  1.00 20.00     0.007 C 
ENDBRANCH  52  53
ENDBRANCH  20  52
BRANCH   9  55
HETATM   55  O6  FK5  3575      -6.472  35.301 223.570  1.00 20.00    -0.359 OA
ATOM     56  H6  FK5  3575      -6.250  36.032 223.006  1.00  0.00     0.213 HD
ENDBRANCH   9  55
BRANCH  12  57
HETATM   57  O7  FK5  3575      -8.417  38.575 221.468  1.00 20.00    -0.388 OA
HETATM   58  C43 FK5  3575      -9.541  39.456 221.404  1.00 20.00     0.202 C 
ENDBRANCH  12  57
BRANCH  14  59
HETATM   59  O8  FK5  3575      -8.581  39.336 225.088  1.00 20.00    -0.388 OA
HETATM   60  C44 FK5  3575      -9.184  40.619 224.903  1.00 20.00     0.202 C 
ENDBRANCH  14  59
TORSDOF 10
ENDMDL
MODEL 8
REMARK VINA RESULT:      -5.1      5.543      9.808
REMARK  10 active torsions:
REMARK  status: ('A' for Active; 'I' for Inactive)
REMARK    1  A    between atoms: C10_9  and  O6_51 
REMARK    2  A    between atoms: C13_12  and  O7_53 
REMARK    3  A    between atoms: C15_14  and  O8_54 
REMARK    4  A    between atoms: C21_20  and  C38_37 
REMARK    5  A    between atoms: C24_23  and  O10_56 
REMARK    6  A    between atoms: C26_25  and  C27_26 
REMARK    7  A    between atoms: C28_27  and  C29_28 
REMARK    8  A    between atoms: C31_30  and  O11_58 
REMARK    9  A    between atoms: C32_31  and  O12_59 
REMARK   10  A    between atoms: C38_37  and  C39_38 
ROOT
HETATM    1  C1  FK5  3575      -4.738  33.911 226.684  1.00 20.00     0.282 C 
HETATM    2  C2  FK5  3575      -5.966  33.057 226.859  1.00 20.00     0.187 C 
HETATM    3  C3  FK5  3575      -5.633  31.613 226.451  1.00 20.00     0.035 C 
HETATM    4  C4  FK5  3575      -6.888  30.756 226.637  1.00 20.00     0.004 C 
HETATM    5  C5  FK5  3575      -7.988  31.278 225.710  1.00 20.00     0.020 C 
HETATM    6  C6  FK5  3575      -8.326  32.725 226.087  1.00 20.00     0.127 C 
HETATM    7  C8  FK5  3575      -7.004  34.631 225.276  1.00 20.00     0.296 C 
HETATM    8  C9  FK5  3575      -8.209  35.275 224.675  1.00 20.00     0.278 C 
HETATM    9  C10 FK5  3575      -8.027  36.352 223.628  1.00 20.00     0.238 C 
HETATM   10  C11 FK5  3575      -9.201  36.316 222.650  1.00 20.00     0.055 C 
HETATM   11  C12 FK5  3575      -9.001  37.424 221.605  1.00 20.00     0.044 C 
HETATM   12  C13 FK5  3575      -8.847  38.757 222.349  1.00 20.00     0.153 C 
HETATM   13  C14 FK5  3575      -7.692  38.639 223.347  1.00 20.00     0.183 C 
HETATM   14  C15 FK5  3575      -7.560  39.966 224.109  1.00 20.00     0.152 C 
HETATM   15  C16 FK5  3575      -6.222  40.030 224.820  1.00 20.00     0.039 C 
HETATM   16  C17 FK5  3575      -5.120  40.792 224.109  1.00 20.00    -0.012 C 
HETATM   17  C18 FK5  3575      -4.357  41.642 225.135  1.00 20.00     0.037 C 
HETATM   18  C19 FK5  3575      -2.927  41.175 225.252  1.00 20.00    -0.086 C 
HETATM   19  C20 FK5  3575      -2.502  40.698 226.395  1.00 20.00    -0.012 C 
HETATM   20  C21 FK5  3575      -1.096  40.224 226.606  1.00 20.00     0.081 C 
HETATM   21  C22 FK5  3575      -1.046  39.318 227.816  1.00 20.00     0.137 C 
HETATM   22  C23 FK5  3575      -1.379  37.854 227.686  1.00 20.00     0.111 C 
HETATM   23  C24 FK5  3575      -1.997  37.366 228.995  1.00 20.00     0.131 C 
HETATM   24  C25 FK5  3575      -3.277  36.582 228.772  1.00 20.00     0.044 C 
HETATM   25  C26 FK5  3575      -3.186  35.562 227.638  1.00 20.00     0.166 C 
HETATM   26  C35 FK5  3575      -9.240  34.962 221.931  1.00 20.00     0.016 C 
HETATM   27  C36 FK5  3575      -5.623  41.710 223.003  1.00 20.00     0.010 C 
HETATM   28  C37 FK5  3575      -2.021  41.276 224.053  1.00 20.00     0.043 C 
HETATM   29  C41 FK5  3575      -4.429  37.552 228.477  1.00 20.00     0.015 C 
HETATM   30  N7  FK5  3575      -7.087  33.525 226.030  1.00 20.00    -0.331 N 
HETATM   31  O1  FK5  3575      -4.445  34.837 227.602  1.00 20.00    -0.309 OA
HETATM   32  O2  FK5  3575      -4.018  33.737 225.728  1.00 20.00    -0.263 OA
HETATM   33  O3  FK5  3575      -5.927  35.167 225.087  1.00 20.00    -0.264 OA
HETATM   34  O4  FK5  3575      -9.321  34.971 225.017  1.00 20.00    -0.281 OA
HETATM   35  O5  FK5  3575      -7.964  37.610 224.288  1.00 20.00    -0.338 OA
HETATM   36  O9  FK5  3575      -0.736  39.775 228.890  1.00 20.00    -0.297 OA
ENDROOT
BRANCH  25  37
HETATM   37  C27 FK5  3575      -2.071  34.583 227.904  1.00 20.00    -0.058 C 
HETATM   38  C28 FK5  3575      -1.154  34.372 226.994  1.00 20.00    -0.017 C 
HETATM   39  C42 FK5  3575      -2.012  33.847 229.218  1.00 20.00     0.046 C 
BRANCH  38  40
HETATM   40  C29 FK5  3575       0.047  33.521 227.317  1.00 20.00     0.011 C 
HETATM   41  C34 FK5  3575       1.295  34.137 226.683  1.00 20.00     0.011 C 
HETATM   42  C33 FK5  3575       2.513  33.273 227.011  1.00 20.00     0.035 C 
HETATM   43  C32 FK5  3575       2.304  31.863 226.455  1.00 20.00     0.147 C 
HETATM   44  C31 FK5  3575       1.055  31.246 227.090  1.00 20.00     0.150 C 
HETATM   45  C30 FK5  3575      -0.164  32.111 226.762  1.00 20.00     0.043 C 
BRANCH  43  46
HETATM   46  O12 FK5  3575       3.442  31.056 226.762  1.00 20.00    -0.393 OA
ATOM     47  H12 FK5  3575       3.521  30.363 226.118  1.00  0.00     0.210 HD
ENDBRANCH  43  46
BRANCH  44  48
HETATM   48  O11 FK5  3575       0.859  29.929 226.571  1.00 20.00    -0.388 OA
HETATM   49  C45 FK5  3575       0.075  30.066 225.385  1.00 20.00     0.202 C 
ENDBRANCH  44  48
ENDBRANCH  38  40
ENDBRANCH  25  37
BRANCH  23  50
HETATM   50  O10 FK5  3575      -1.048  36.603 229.738  1.00 20.00    -0.395 OA
ATOM     51  H10 FK5  3575      -0.641  35.949 229.182  1.00  0.00     0.210 HD
ENDBRANCH  23  50
BRANCH  20  52
HETATM   52  C38 FK5  3575      -0.179  41.424 226.869  1.00 20.00     0.042 C 
BRANCH  52  53
HETATM   53  C39 FK5  3575       1.231  41.077 226.465  1.00 20.00    -0.036 C 
HETATM   54  C40 FK5  3575       2.195  41.945 226.644  1.00 20.00     0.007 C 
ENDBRANCH  52  53
ENDBRANCH  20  52
BRANCH   9  55
HETATM   55  O6  FK5  3575      -6.813  36.111 222.912  1.00 20.00    -0.359 OA
ATOM     56  H6  FK5  3575      -6.104  35.986 223.532  1.00  0.00     0.213 HD
ENDBRANCH   9  55
BRANCH  12  57
HETATM   57  O7  FK5  3575      -8.567  39.799 221.414  1.00 20.00    -0.388 OA
HETATM   58  C43 FK5  3575      -9.705  40.664 221.404  1.00 20.00     0.202 C 
ENDBRANCH  12  57
BRANCH  14  59
HETATM   59  O8  FK5  3575      -8.598  39.986 225.112  1.00 20.00    -0.388 OA
HETATM   60  C44 FK5  3575      -9.122  41.315 225.139  1.00 20.00     0.202 C 
ENDBRANCH  14  59
TORSDOF 10
ENDMDL
MODEL 9
REMARK VINA RESULT:      -5.1      3.056      8.802
REMARK  10 active torsions:
REMARK  status: ('A' for Active; 'I' for Inactive)
REMARK    1  A    between atoms: C10_9  and  O6_51 
REMARK    2  A    between atoms: C13_12  and  O7_53 
REMARK    3  A    between atoms: C15_14  and  O8_54 
REMARK    4  A    between atoms: C21_20  and  C38_37 
REMARK    5  A    between atoms: C24_23  and  O10_56 
REMARK    6  A    between atoms: C26_25  and  C27_26 
REMARK    7  A    between atoms: C28_27  and  C29_28 
REMARK    8  A    between atoms: C31_30  and  O11_58 
REMARK    9  A    between atoms: C32_31  and  O12_59 
REMARK   10  A    between atoms: C38_37  and  C39_38 
ROOT
HETATM    1  C1  FK5  3575      -1.212  34.091 229.737  1.00 20.00     0.282 C 
HETATM    2  C2  FK5  3575      -0.647  34.868 230.897  1.00 20.00     0.187 C 
HETATM    3  C3  FK5  3575       0.801  34.418 231.142  1.00 20.00     0.035 C 
HETATM    4  C4  FK5  3575       1.364  35.217 232.321  1.00 20.00     0.004 C 
HETATM    5  C5  FK5  3575       0.542  34.901 233.572  1.00 20.00     0.020 C 
HETATM    6  C6  FK5  3575      -0.914  35.327 233.346  1.00 20.00     0.127 C 
HETATM    7  C8  FK5  3575      -2.524  33.897 232.162  1.00 20.00     0.296 C 
HETATM    8  C9  FK5  3575      -3.465  33.912 233.320  1.00 20.00     0.278 C 
HETATM    9  C10 FK5  3575      -4.544  32.856 233.410  1.00 20.00     0.238 C 
HETATM   10  C11 FK5  3575      -4.843  32.556 234.879  1.00 20.00     0.055 C 
HETATM   11  C12 FK5  3575      -5.950  31.491 234.944  1.00 20.00     0.044 C 
HETATM   12  C13 FK5  3575      -7.157  32.010 234.152  1.00 20.00     0.153 C 
HETATM   13  C14 FK5  3575      -6.710  32.344 232.726  1.00 20.00     0.183 C 
HETATM   14  C15 FK5  3575      -7.915  32.888 231.946  1.00 20.00     0.152 C 
HETATM   15  C16 FK5  3575      -7.625  32.874 230.457  1.00 20.00     0.039 C 
HETATM   16  C17 FK5  3575      -8.166  31.691 229.679  1.00 20.00    -0.012 C 
HETATM   17  C18 FK5  3575      -8.746  32.190 228.349  1.00 20.00     0.037 C 
HETATM   18  C19 FK5  3575      -7.962  31.635 227.186  1.00 20.00    -0.086 C 
HETATM   19  C20 FK5  3575      -7.321  32.459 226.396  1.00 20.00    -0.012 C 
HETATM   20  C21 FK5  3575      -6.527  31.999 225.210  1.00 20.00     0.081 C 
HETATM   21  C22 FK5  3575      -5.550  33.079 224.807  1.00 20.00     0.137 C 
HETATM   22  C23 FK5  3575      -4.212  33.192 225.491  1.00 20.00     0.111 C 
HETATM   23  C24 FK5  3575      -3.785  34.659 225.513  1.00 20.00     0.131 C 
HETATM   24  C25 FK5  3575      -3.329  35.107 226.888  1.00 20.00     0.044 C 
HETATM   25  C26 FK5  3575      -2.397  34.115 227.584  1.00 20.00     0.166 C 
HETATM   26  C35 FK5  3575      -3.588  32.006 235.566  1.00 20.00     0.016 C 
HETATM   27  C36 FK5  3575      -9.251  30.916 230.416  1.00 20.00     0.010 C 
HETATM   28  C37 FK5  3575      -7.940  30.146 226.959  1.00 20.00     0.043 C 
HETATM   29  C41 FK5  3575      -4.552  35.350 227.782  1.00 20.00     0.015 C 
HETATM   30  N7  FK5  3575      -1.414  34.651 232.133  1.00 20.00    -0.331 N 
HETATM   31  O1  FK5  3575      -1.980  34.715 228.840  1.00 20.00    -0.309 OA
HETATM   32  O2  FK5  3575      -0.948  32.916 229.617  1.00 20.00    -0.263 OA
HETATM   33  O3  FK5  3575      -2.814  33.195 231.211  1.00 20.00    -0.264 OA
HETATM   34  O4  FK5  3575      -3.396  34.755 234.175  1.00 20.00    -0.281 OA
HETATM   35  O5  FK5  3575      -5.705  33.347 232.752  1.00 20.00    -0.338 OA
HETATM   36  O9  FK5  3575      -5.848  33.855 223.930  1.00 20.00    -0.297 OA
ENDROOT
BRANCH  25  37
HETATM   37  C27 FK5  3575      -1.176  33.864 226.737  1.00 20.00    -0.058 C 
HETATM   38  C28 FK5  3575      -1.056  32.741 226.075  1.00 20.00    -0.017 C 
HETATM   39  C42 FK5  3575      -0.090  34.906 226.653  1.00 20.00     0.046 C 
BRANCH  38  40
HETATM   40  C29 FK5  3575       0.081  32.555 225.104  1.00 20.00     0.011 C 
HETATM   41  C34 FK5  3575      -0.462  32.011 223.781  1.00 20.00     0.011 C 
HETATM   42  C33 FK5  3575       0.693  31.822 222.796  1.00 20.00     0.035 C 
HETATM   43  C32 FK5  3575       1.702  30.832 223.377  1.00 20.00     0.147 C 
HETATM   44  C31 FK5  3575       2.246  31.375 224.700  1.00 20.00     0.150 C 
HETATM   45  C30 FK5  3575       1.091  31.564 225.686  1.00 20.00     0.043 C 
BRANCH  43  46
HETATM   46  O12 FK5  3575       2.781  30.656 222.456  1.00 20.00    -0.393 OA
ATOM     47  H12 FK5  3575       2.679  29.827 222.004  1.00  0.00     0.210 HD
ENDBRANCH  43  46
BRANCH  44  48
HETATM   48  O11 FK5  3575       3.189  30.449 225.244  1.00 20.00    -0.388 OA
HETATM   49  C45 FK5  3575       2.961  30.407 226.653  1.00 20.00     0.202 C 
ENDBRANCH  44  48
ENDBRANCH  38  40
ENDBRANCH  25  37
BRANCH  23  50
HETATM   50  O10 FK5  3575      -2.776  34.896 224.532  1.00 20.00    -0.395 OA
ATOM     51  H10 FK5  3575      -1.921  34.944 224.942  1.00  0.00     0.210 HD
ENDBRANCH  23  50
BRANCH  20  52
HETATM   52  C38 FK5  3575      -7.468  31.738 224.028  1.00 20.00     0.042 C 
BRANCH  52  53
HETATM   53  C39 FK5  3575      -7.107  30.426 223.379  1.00 20.00    -0.036 C 
HETATM   54  C40 FK5  3575      -6.050  29.766 223.783  1.00 20.00     0.007 C 
ENDBRANCH  52  53
ENDBRANCH  20  52
BRANCH   9  55
HETATM   55  O6  FK5  3575      -4.086  31.661 232.772  1.00 20.00    -0.359 OA
ATOM     56  H6  FK5  3575      -4.785  31.306 232.235  1.00  0.00     0.213 HD
ENDBRANCH   9  55
BRANCH  12  57
HETATM   57  O7  FK5  3575      -8.172  31.007 234.114  1.00 20.00    -0.388 OA
HETATM   58  C43 FK5  3575      -7.827  30.031 235.099  1.00 20.00     0.202 C 
ENDBRANCH  12  57
BRANCH  14  59
HETATM   59  O8  FK5  3575      -8.098  34.262 232.351  1.00 20.00    -0.388 OA
HETATM   60  C44 FK5  3575      -9.499  34.532 232.279  1.00 20.00     0.202 C 
ENDBRANCH  14  59
TORSDOF 10
ENDMDL
