MODEL 1
REMARK VINA RESULT:      -5.7      0.000      0.000
REMARK  1 active torsions:
REMARK  status: ('A' for Active; 'I' for Inactive)
REMARK    1  A    between atoms: C10_5  and  C9_4 
ROOT
HETATM    1  C2  TMG  7263       1.218  41.040 226.838  1.00 20.00     0.060 C 
HETATM    2  N7  TMG  7263       0.305  40.677 225.921  1.00 20.00    -0.339 N 
ATOM      3  H7  TMG  7263       0.512  40.183 225.053  1.00  0.00     0.167 HD
HETATM    4  C9  TMG  7263      -0.870  41.044 226.299  1.00 20.00     0.134 C 
HETATM    5  N8  TMG  7263      -0.911  41.469 227.579  1.00 20.00    -0.339 N 
ATOM      6  H8  TMG  7263      -1.717  41.654 228.176  1.00  0.00     0.167 HD
HETATM    7  C6  TMG  7263       0.470  41.591 227.868  1.00 20.00     0.060 C 
HETATM    8  C5  TMG  7263       1.062  41.937 229.076  1.00 20.00     0.032 C 
HETATM    9  C4  TMG  7263       2.462  41.913 229.072  1.00 20.00     0.002 C 
HETATM   10  C3  TMG  7263       3.223  41.415 228.001  1.00 20.00     0.002 C 
HETATM   11  C1  TMG  7263       2.604  40.958 226.835  1.00 20.00     0.032 C 
ENDROOT
BRANCH   4  12
HETATM   12  C10 TMG  7263      -2.023  40.610 225.511  1.00 20.00     0.083 C 
HETATM   13  C14 TMG  7263      -3.191  40.123 225.930  1.00 20.00     0.084 C 
HETATM   14  S13 TMG  7263      -4.372  39.983 224.580  1.00 20.00    -0.094 SA
HETATM   15  C12 TMG  7263      -3.129  40.640 223.488  1.00 20.00     0.138 C 
HETATM   16  N11 TMG  7263      -2.087  40.966 224.115  1.00 20.00    -0.357 N 
ATOM     17  H11 TMG  7263      -1.322  41.461 223.656  1.00  0.00     0.166 HD
ENDBRANCH   4  12
TORSDOF 1
ENDMDL
MODEL 2
REMARK VINA RESULT:      -5.4      2.022      2.573
REMARK  1 active torsions:
REMARK  status: ('A' for Active; 'I' for Inactive)
REMARK    1  A    between atoms: C10_5  and  C9_4 
ROOT
HETATM    1  C2  TMG  7263       1.237  40.262 227.701  1.00 20.00     0.060 C 
HETATM    2  N7  TMG  7263       0.140  39.546 227.400  1.00 20.00    -0.339 N 
ATOM      3  H7  TMG  7263       0.138  38.672 226.874  1.00  0.00     0.167 HD
HETATM    4  C9  TMG  7263      -0.908  40.125 227.875  1.00 20.00     0.134 C 
HETATM    5  N8  TMG  7263      -0.623  41.136 228.723  1.00 20.00    -0.339 N 
ATOM      6  H8  TMG  7263      -1.238  41.644 229.357  1.00  0.00     0.167 HD
HETATM    7  C6  TMG  7263       0.765  41.300 228.491  1.00 20.00     0.060 C 
HETATM    8  C5  TMG  7263       1.641  42.166 229.132  1.00 20.00     0.032 C 
HETATM    9  C4  TMG  7263       2.977  42.056 228.727  1.00 20.00     0.002 C 
HETATM   10  C3  TMG  7263       3.445  41.043 227.873  1.00 20.00     0.002 C 
HETATM   11  C1  TMG  7263       2.566  40.103 227.329  1.00 20.00     0.032 C 
ENDROOT
BRANCH   4  12
HETATM   12  C10 TMG  7263      -2.190  39.428 227.786  1.00 20.00     0.083 C 
HETATM   13  C14 TMG  7263      -3.042  39.365 226.763  1.00 20.00     0.084 C 
HETATM   14  S13 TMG  7263      -4.351  38.168 227.064  1.00 20.00    -0.094 SA
HETATM   15  C12 TMG  7263      -3.599  37.814 228.639  1.00 20.00     0.138 C 
HETATM   16  N11 TMG  7263      -2.521  38.447 228.791  1.00 20.00    -0.357 N 
ATOM     17  H11 TMG  7263      -1.909  38.274 229.588  1.00  0.00     0.166 HD
ENDBRANCH   4  12
TORSDOF 1
ENDMDL
MODEL 3
REMARK VINA RESULT:      -5.4      2.472      5.794
REMARK  1 active torsions:
REMARK  status: ('A' for Active; 'I' for Inactive)
REMARK    1  A    between atoms: C10_5  and  C9_4 
ROOT
HETATM    1  C2  TMG  7263      -3.145  39.945 225.754  1.00 20.00     0.060 C 
HETATM    2  N7  TMG  7263      -2.309  40.375 226.715  1.00 20.00    -0.339 N 
ATOM      3  H7  TMG  7263      -2.351  40.095 227.695  1.00  0.00     0.167 HD
HETATM    4  C9  TMG  7263      -1.448  41.192 226.217  1.00 20.00     0.134 C 
HETATM    5  N8  TMG  7263      -1.456  41.222 224.868  1.00 20.00    -0.339 N 
ATOM      6  H8  TMG  7263      -0.785  41.640 224.224  1.00  0.00     0.167 HD
HETATM    7  C6  TMG  7263      -2.651  40.514 224.589  1.00 20.00     0.060 C 
HETATM    8  C5  TMG  7263      -3.166  40.164 223.348  1.00 20.00     0.032 C 
HETATM    9  C4  TMG  7263      -4.343  39.406 223.393  1.00 20.00     0.002 C 
HETATM   10  C3  TMG  7263      -4.881  38.884 224.581  1.00 20.00     0.002 C 
HETATM   11  C1  TMG  7263      -4.280  39.147 225.815  1.00 20.00     0.032 C 
ENDROOT
BRANCH   4  12
HETATM   12  C10 TMG  7263      -0.355  41.658 227.070  1.00 20.00     0.083 C 
HETATM   13  C14 TMG  7263      -0.083  41.337 228.334  1.00 20.00     0.084 C 
HETATM   14  S13 TMG  7263       1.518  41.977 228.849  1.00 20.00    -0.094 SA
HETATM   15  C12 TMG  7263       1.715  42.664 227.218  1.00 20.00     0.138 C 
HETATM   16  N11 TMG  7263       0.758  42.345 226.463  1.00 20.00    -0.357 N 
ATOM     17  H11 TMG  7263       0.771  42.563 225.466  1.00  0.00     0.166 HD
ENDBRANCH   4  12
TORSDOF 1
ENDMDL
MODEL 4
REMARK VINA RESULT:      -5.4      8.609      9.579
REMARK  1 active torsions:
REMARK  status: ('A' for Active; 'I' for Inactive)
REMARK    1  A    between atoms: C10_5  and  C9_4 
ROOT
HETATM    1  C2  TMG  7263       2.489  35.816 235.400  1.00 20.00     0.060 C 
HETATM    2  N7  TMG  7263       1.752  35.391 234.359  1.00 20.00    -0.339 N 
ATOM      3  H7  TMG  7263       1.892  34.510 233.865  1.00  0.00     0.167 HD
HETATM    4  C9  TMG  7263       0.842  36.259 234.080  1.00 20.00     0.134 C 
HETATM    5  N8  TMG  7263       0.716  37.222 235.017  1.00 20.00    -0.339 N 
ATOM      6  H8  TMG  7263      -0.017  37.921 235.134  1.00  0.00     0.167 HD
HETATM    7  C6  TMG  7263       1.881  37.000 235.792  1.00 20.00     0.060 C 
HETATM    8  C5  TMG  7263       2.272  37.655 236.952  1.00 20.00     0.032 C 
HETATM    9  C4  TMG  7263       3.450  37.168 237.532  1.00 20.00     0.002 C 
HETATM   10  C3  TMG  7263       4.105  36.005 237.093  1.00 20.00     0.002 C 
HETATM   11  C1  TMG  7263       3.628  35.288 235.993  1.00 20.00     0.032 C 
ENDROOT
BRANCH   4  12
HETATM   12  C10 TMG  7263      -0.163  35.915 233.075  1.00 20.00     0.083 C 
HETATM   13  C14 TMG  7263      -0.450  34.725 232.548  1.00 20.00     0.084 C 
HETATM   14  S13 TMG  7263      -1.942  34.789 231.544  1.00 20.00    -0.094 SA
HETATM   15  C12 TMG  7263      -2.079  36.519 231.943  1.00 20.00     0.138 C 
HETATM   16  N11 TMG  7263      -1.189  36.878 232.757  1.00 20.00    -0.357 N 
ATOM     17  H11 TMG  7263      -1.192  37.810 233.174  1.00  0.00     0.166 HD
ENDBRANCH   4  12
TORSDOF 1
ENDMDL
MODEL 5
REMARK VINA RESULT:      -5.3      8.539      9.608
REMARK  1 active torsions:
REMARK  status: ('A' for Active; 'I' for Inactive)
REMARK    1  A    between atoms: C10_5  and  C9_4 
ROOT
HETATM    1  C2  TMG  7263       1.839  36.894 235.718  1.00 20.00     0.060 C 
HETATM    2  N7  TMG  7263       0.856  36.989 234.806  1.00 20.00    -0.339 N 
ATOM      3  H7  TMG  7263       0.234  37.790 234.698  1.00  0.00     0.167 HD
HETATM    4  C9  TMG  7263       0.815  35.920 234.089  1.00 20.00     0.134 C 
HETATM    5  N8  TMG  7263       1.880  35.111 234.273  1.00 20.00    -0.339 N 
ATOM      6  H8  TMG  7263       2.183  34.305 233.728  1.00  0.00     0.167 HD
HETATM    7  C6  TMG  7263       2.461  35.688 235.429  1.00 20.00     0.060 C 
HETATM    8  C5  TMG  7263       3.638  35.319 236.067  1.00 20.00     0.032 C 
HETATM    9  C4  TMG  7263       3.991  36.123 237.158  1.00 20.00     0.002 C 
HETATM   10  C3  TMG  7263       3.320  37.311 237.492  1.00 20.00     0.002 C 
HETATM   11  C1  TMG  7263       2.204  37.732 236.763  1.00 20.00     0.032 C 
ENDROOT
BRANCH   4  12
HETATM   12  C10 TMG  7263      -0.089  35.886 232.940  1.00 20.00     0.083 C 
HETATM   13  C14 TMG  7263      -0.199  34.962 231.986  1.00 20.00     0.084 C 
HETATM   14  S13 TMG  7263      -1.636  35.254 230.944  1.00 20.00    -0.094 SA
HETATM   15  C12 TMG  7263      -2.008  36.682 231.940  1.00 20.00     0.138 C 
HETATM   16  N11 TMG  7263      -1.210  36.792 232.908  1.00 20.00    -0.357 N 
ATOM     17  H11 TMG  7263      -1.351  37.491 233.638  1.00  0.00     0.166 HD
ENDBRANCH   4  12
TORSDOF 1
ENDMDL
MODEL 6
REMARK VINA RESULT:      -5.3      4.526      5.663
REMARK  1 active torsions:
REMARK  status: ('A' for Active; 'I' for Inactive)
REMARK    1  A    between atoms: C10_5  and  C9_4 
ROOT
HETATM    1  C2  TMG  7263       0.769  36.820 228.024  1.00 20.00     0.060 C 
HETATM    2  N7  TMG  7263       0.573  38.150 228.019  1.00 20.00    -0.339 N 
ATOM      3  H7  TMG  7263      -0.178  38.632 228.512  1.00  0.00     0.167 HD
HETATM    4  C9  TMG  7263       1.474  38.726 227.301  1.00 20.00     0.134 C 
HETATM    5  N8  TMG  7263       2.483  37.902 226.947  1.00 20.00    -0.339 N 
ATOM      6  H8  TMG  7263       3.388  38.125 226.534  1.00  0.00     0.167 HD
HETATM    7  C6  TMG  7263       1.942  36.643 227.305  1.00 20.00     0.060 C 
HETATM    8  C5  TMG  7263       2.556  35.399 227.233  1.00 20.00     0.032 C 
HETATM    9  C4  TMG  7263       1.786  34.336 227.721  1.00 20.00     0.002 C 
HETATM   10  C3  TMG  7263       0.564  34.510 228.392  1.00 20.00     0.002 C 
HETATM   11  C1  TMG  7263       0.016  35.785 228.562  1.00 20.00     0.032 C 
ENDROOT
BRANCH   4  12
HETATM   12  C10 TMG  7263       1.527  40.187 227.289  1.00 20.00     0.083 C 
HETATM   13  C14 TMG  7263       1.597  41.032 228.317  1.00 20.00     0.084 C 
HETATM   14  S13 TMG  7263       1.901  42.719 227.768  1.00 20.00    -0.094 SA
HETATM   15  C12 TMG  7263       1.922  42.118 226.092  1.00 20.00     0.138 C 
HETATM   16  N11 TMG  7263       1.810  40.864 226.048  1.00 20.00    -0.357 N 
ATOM     17  H11 TMG  7263       1.915  40.351 225.173  1.00  0.00     0.166 HD
ENDBRANCH   4  12
TORSDOF 1
ENDMDL
MODEL 7
REMARK VINA RESULT:      -5.0     12.061     13.232
REMARK  1 active torsions:
REMARK  status: ('A' for Active; 'I' for Inactive)
REMARK    1  A    between atoms: C10_5  and  C9_4 
ROOT
HETATM    1  C2  TMG  7263       1.070  35.255 236.623  1.00 20.00     0.060 C 
HETATM    2  N7  TMG  7263       1.648  34.058 236.419  1.00 20.00    -0.339 N 
ATOM      3  H7  TMG  7263       1.199  33.262 235.966  1.00  0.00     0.167 HD
HETATM    4  C9  TMG  7263       2.851  34.066 236.878  1.00 20.00     0.134 C 
HETATM    5  N8  TMG  7263       3.286  35.297 237.219  1.00 20.00    -0.339 N 
ATOM      6  H8  TMG  7263       4.229  35.612 237.444  1.00  0.00     0.167 HD
HETATM    7  C6  TMG  7263       2.076  36.032 237.178  1.00 20.00     0.060 C 
HETATM    8  C5  TMG  7263       1.898  37.395 237.379  1.00 20.00     0.032 C 
HETATM    9  C4  TMG  7263       0.583  37.846 237.211  1.00 20.00     0.002 C 
HETATM   10  C3  TMG  7263      -0.453  37.040 236.712  1.00 20.00     0.002 C 
HETATM   11  C1  TMG  7263      -0.227  35.697 236.399  1.00 20.00     0.032 C 
ENDROOT
BRANCH   4  12
HETATM   12  C10 TMG  7263       3.702  32.906 236.619  1.00 20.00     0.083 C 
HETATM   13  C14 TMG  7263       4.476  32.227 237.466  1.00 20.00     0.084 C 
HETATM   14  S13 TMG  7263       5.120  30.724 236.715  1.00 20.00    -0.094 SA
HETATM   15  C12 TMG  7263       4.237  31.146 235.228  1.00 20.00     0.138 C 
HETATM   16  N11 TMG  7263       3.538  32.183 235.382  1.00 20.00    -0.357 N 
ATOM     17  H11 TMG  7263       2.885  32.497 234.664  1.00  0.00     0.166 HD
ENDBRANCH   4  12
TORSDOF 1
ENDMDL
MODEL 8
REMARK VINA RESULT:      -5.0      7.980      8.921
REMARK  1 active torsions:
REMARK  status: ('A' for Active; 'I' for Inactive)
REMARK    1  A    between atoms: C10_5  and  C9_4 
ROOT
HETATM    1  C2  TMG  7263      -0.357  37.064 235.437  1.00 20.00     0.060 C 
HETATM    2  N7  TMG  7263      -1.248  36.754 234.479  1.00 20.00    -0.339 N 
ATOM      3  H7  TMG  7263      -2.240  36.987 234.505  1.00  0.00     0.167 HD
HETATM    4  C9  TMG  7263      -0.664  36.120 233.522  1.00 20.00     0.134 C 
HETATM    5  N8  TMG  7263       0.683  36.138 233.613  1.00 20.00    -0.339 N 
ATOM      6  H8  TMG  7263       1.383  35.868 232.923  1.00  0.00     0.167 HD
HETATM    7  C6  TMG  7263       0.859  36.632 234.928  1.00 20.00     0.060 C 
HETATM    8  C5  TMG  7263       2.051  36.930 235.576  1.00 20.00     0.032 C 
HETATM    9  C4  TMG  7263       1.903  37.466 236.861  1.00 20.00     0.002 C 
HETATM   10  C3  TMG  7263       0.663  37.842 237.404  1.00 20.00     0.002 C 
HETATM   11  C1  TMG  7263      -0.521  37.645 236.687  1.00 20.00     0.032 C 
ENDROOT
BRANCH   4  12
HETATM   12  C10 TMG  7263      -1.430  35.825 232.312  1.00 20.00     0.083 C 
HETATM   13  C14 TMG  7263      -1.904  34.655 231.884  1.00 20.00     0.084 C 
HETATM   14  S13 TMG  7263      -3.001  34.863 230.472  1.00 20.00    -0.094 SA
HETATM   15  C12 TMG  7263      -2.727  36.619 230.579  1.00 20.00     0.138 C 
HETATM   16  N11 TMG  7263      -2.012  36.917 231.572  1.00 20.00    -0.357 N 
ATOM     17  H11 TMG  7263      -1.852  37.888 231.841  1.00  0.00     0.166 HD
ENDBRANCH   4  12
TORSDOF 1
ENDMDL
MODEL 9
REMARK VINA RESULT:      -4.9      8.158      9.170
REMARK  1 active torsions:
REMARK  status: ('A' for Active; 'I' for Inactive)
REMARK    1  A    between atoms: C10_5  and  C9_4 
ROOT
HETATM    1  C2  TMG  7263      -0.063  36.651 235.046  1.00 20.00     0.060 C 
HETATM    2  N7  TMG  7263      -0.445  36.061 233.900  1.00 20.00    -0.339 N 
ATOM      3  H7  TMG  7263      -1.410  35.963 233.586  1.00  0.00     0.167 HD
HETATM    4  C9  TMG  7263       0.588  35.637 233.257  1.00 20.00     0.134 C 
HETATM    5  N8  TMG  7263       1.755  36.088 233.763  1.00 20.00    -0.339 N 
ATOM      6  H8  TMG  7263       2.692  36.049 233.364  1.00  0.00     0.167 HD
HETATM    7  C6  TMG  7263       1.323  36.627 234.999  1.00 20.00     0.060 C 
HETATM    8  C5  TMG  7263       2.083  37.300 235.949  1.00 20.00     0.032 C 
HETATM    9  C4  TMG  7263       1.359  37.774 237.049  1.00 20.00     0.002 C 
HETATM   10  C3  TMG  7263      -0.043  37.739 237.127  1.00 20.00     0.002 C 
HETATM   11  C1  TMG  7263      -0.802  37.164 236.104  1.00 20.00     0.032 C 
ENDROOT
BRANCH   4  12
HETATM   12  C10 TMG  7263       0.397  35.098 231.911  1.00 20.00     0.083 C 
HETATM   13  C14 TMG  7263      -0.739  34.863 231.255  1.00 20.00     0.084 C 
HETATM   14  S13 TMG  7263      -0.432  34.441 229.532  1.00 20.00    -0.094 SA
HETATM   15  C12 TMG  7263       1.310  34.634 229.845  1.00 20.00     0.138 C 
HETATM   16  N11 TMG  7263       1.529  35.034 231.019  1.00 20.00    -0.357 N 
ATOM     17  H11 TMG  7263       2.464  35.302 231.326  1.00  0.00     0.166 HD
ENDBRANCH   4  12
TORSDOF 1
ENDMDL
