MODEL 1
REMARK VINA RESULT:      -7.0      0.000      0.000
REMARK  5 active torsions:
REMARK  status: ('A' for Active; 'I' for Inactive)
REMARK    1  A    between atoms: C11_11  and  O2_25 
REMARK    2  A    between atoms: C17_17  and  C20_20 
REMARK    3  A    between atoms: C17_17  and  O3_27 
REMARK    4  A    between atoms: C20_20  and  C21_21 
REMARK    5  A    between atoms: C21_21  and  O5_30 
ROOT
HETATM    1  C1  DEX  2957      -1.411  36.752 231.752  1.00 20.00    -0.006 A 
HETATM    2  C2  DEX  2957      -1.614  36.808 230.441  1.00 20.00     0.052 A 
HETATM    3  C3  DEX  2957      -1.838  35.519 229.708  1.00 20.00     0.172 A 
HETATM    4  C4  DEX  2957      -1.701  34.236 230.471  1.00 20.00     0.058 A 
HETATM    5  C5  DEX  2957      -1.489  34.259 231.784  1.00 20.00    -0.061 A 
HETATM    6  C6  DEX  2957      -1.351  32.933 232.472  1.00 20.00     0.036 C 
HETATM    7  C7  DEX  2957      -0.050  32.908 233.271  1.00 20.00     0.013 C 
HETATM    8  C8  DEX  2957       0.156  34.154 234.125  1.00 20.00     0.035 C 
HETATM    9  C9  DEX  2957      -0.057  35.472 233.379  1.00 20.00     0.147 C 
HETATM   10  C10 DEX  2957      -1.374  35.514 232.603  1.00 20.00     0.036 A 
HETATM   11  C11 DEX  2957       0.300  36.731 234.168  1.00 20.00     0.160 C 
HETATM   12  C12 DEX  2957       1.540  36.633 235.051  1.00 20.00     0.048 C 
HETATM   13  C13 DEX  2957       1.570  35.345 235.874  1.00 20.00     0.001 C 
HETATM   14  C14 DEX  2957       1.460  34.158 234.918  1.00 20.00     0.005 C 
HETATM   15  C15 DEX  2957       1.903  32.936 235.716  1.00 20.00     0.013 C 
HETATM   16  C16 DEX  2957       2.942  33.495 236.683  1.00 20.00     0.025 C 
HETATM   17  C17 DEX  2957       2.924  35.010 236.498  1.00 20.00     0.131 C 
HETATM   18  C18 DEX  2957       0.484  35.384 236.948  1.00 20.00     0.019 C 
HETATM   19  C19 DEX  2957      -2.613  35.598 233.491  1.00 20.00     0.028 C 
HETATM   20  C22 DEX  2957       4.292  32.809 236.490  1.00 20.00     0.013 C 
HETATM   21  F1  DEX  2957       0.915  35.471 232.423  1.00 20.00    -0.238 F 
HETATM   22  O1  DEX  2957      -2.128  35.521 228.514  1.00 20.00    -0.289 OA
ENDROOT
BRANCH  17  23
HETATM   23  C20 DEX  2957       3.222  35.771 237.780  1.00 20.00     0.185 C 
HETATM   24  O4  DEX  2957       3.238  35.186 238.861  1.00 20.00    -0.292 OA
BRANCH  23  25
HETATM   25  C21 DEX  2957       3.493  37.266 237.802  1.00 20.00     0.245 C 
BRANCH  25  26
HETATM   26  O5  DEX  2957       4.812  37.527 237.346  1.00 20.00    -0.393 OA
ATOM     27  H5  DEX  2957       5.382  37.699 238.086  1.00  0.00     0.209 HD
ENDBRANCH  25  26
ENDBRANCH  23  25
ENDBRANCH  17  23
BRANCH  17  28
HETATM   28  O3  DEX  2957       3.965  35.326 235.584  1.00 20.00    -0.381 OA
ATOM     29  H3  DEX  2957       4.294  36.199 235.762  1.00  0.00     0.211 HD
ENDBRANCH  17  28
BRANCH  11  30
HETATM   30  O2  DEX  2957      -0.774  37.082 235.028  1.00 20.00    -0.392 OA
ATOM     31  H2  DEX  2957      -1.603  36.915 234.593  1.00  0.00     0.210 HD
ENDBRANCH  11  30
TORSDOF 5
ENDMDL
MODEL 2
REMARK VINA RESULT:      -7.0      1.851      6.985
REMARK  5 active torsions:
REMARK  status: ('A' for Active; 'I' for Inactive)
REMARK    1  A    between atoms: C11_11  and  O2_25 
REMARK    2  A    between atoms: C17_17  and  C20_20 
REMARK    3  A    between atoms: C17_17  and  O3_27 
REMARK    4  A    between atoms: C20_20  and  C21_21 
REMARK    5  A    between atoms: C21_21  and  O5_30 
ROOT
HETATM    1  C1  DEX  2957       3.502  36.953 237.583  1.00 20.00    -0.006 A 
HETATM    2  C2  DEX  2957       3.811  37.208 238.850  1.00 20.00     0.052 A 
HETATM    3  C3  DEX  2957       4.055  36.044 239.763  1.00 20.00     0.172 A 
HETATM    4  C4  DEX  2957       3.819  34.662 239.230  1.00 20.00     0.058 A 
HETATM    5  C5  DEX  2957       3.505  34.485 237.949  1.00 20.00    -0.061 A 
HETATM    6  C6  DEX  2957       3.273  33.074 237.497  1.00 20.00     0.036 C 
HETATM    7  C7  DEX  2957       1.913  32.977 236.810  1.00 20.00     0.013 C 
HETATM    8  C8  DEX  2957       1.677  34.079 235.783  1.00 20.00     0.035 C 
HETATM    9  C9  DEX  2957       1.987  35.488 236.289  1.00 20.00     0.147 C 
HETATM   10  C10 DEX  2957       3.362  35.599 236.949  1.00 20.00     0.036 A 
HETATM   11  C11 DEX  2957       1.606  36.620 235.335  1.00 20.00     0.160 C 
HETATM   12  C12 DEX  2957       0.297  36.435 234.573  1.00 20.00     0.048 C 
HETATM   13  C13 DEX  2957       0.164  35.036 233.974  1.00 20.00     0.001 C 
HETATM   14  C14 DEX  2957       0.315  34.011 235.099  1.00 20.00     0.005 C 
HETATM   15  C15 DEX  2957      -0.226  32.698 234.543  1.00 20.00     0.013 C 
HETATM   16  C16 DEX  2957      -1.322  33.139 233.578  1.00 20.00     0.025 C 
HETATM   17  C17 DEX  2957      -1.245  34.662 233.514  1.00 20.00     0.131 C 
HETATM   18  C18 DEX  2957       1.162  34.857 232.831  1.00 20.00     0.019 C 
HETATM   19  C19 DEX  2957       4.529  35.488 235.970  1.00 20.00     0.028 C 
HETATM   20  C22 DEX  2957      -2.671  32.549 233.978  1.00 20.00     0.013 C 
HETATM   21  F1  DEX  2957       1.095  35.680 237.302  1.00 20.00    -0.238 F 
HETATM   22  O1  DEX  2957       4.438  36.223 240.916  1.00 20.00    -0.289 OA
ENDROOT
BRANCH  17  23
HETATM   23  C20 DEX  2957      -1.621  35.221 232.151  1.00 20.00     0.185 C 
HETATM   24  O4  DEX  2957      -1.677  34.483 231.169  1.00 20.00    -0.292 OA
BRANCH  23  25
HETATM   25  C21 DEX  2957      -1.924  36.693 231.924  1.00 20.00     0.245 C 
BRANCH  25  26
HETATM   26  O5  DEX  2957      -3.207  36.839 231.333  1.00 20.00    -0.393 OA
ATOM     27  H5  DEX  2957      -3.299  37.711 230.971  1.00  0.00     0.209 HD
ENDBRANCH  25  26
ENDBRANCH  23  25
ENDBRANCH  17  23
BRANCH  17  28
HETATM   28  O3  DEX  2957      -2.200  35.162 234.439  1.00 20.00    -0.381 OA
ATOM     29  H3  DEX  2957      -2.890  34.522 234.565  1.00  0.00     0.211 HD
ENDBRANCH  17  28
BRANCH  11  30
HETATM   30  O2  DEX  2957       2.618  36.785 234.354  1.00 20.00    -0.392 OA
ATOM     31  H2  DEX  2957       3.470  36.831 234.773  1.00  0.00     0.210 HD
ENDBRANCH  11  30
TORSDOF 5
ENDMDL
MODEL 3
REMARK VINA RESULT:      -6.6      1.779      7.040
REMARK  5 active torsions:
REMARK  status: ('A' for Active; 'I' for Inactive)
REMARK    1  A    between atoms: C11_11  and  O2_25 
REMARK    2  A    between atoms: C17_17  and  C20_20 
REMARK    3  A    between atoms: C17_17  and  O3_27 
REMARK    4  A    between atoms: C20_20  and  C21_21 
REMARK    5  A    between atoms: C21_21  and  O5_30 
ROOT
HETATM    1  C1  DEX  2957       3.327  34.673 236.398  1.00 20.00    -0.006 A 
HETATM    2  C2  DEX  2957       4.389  35.297 236.894  1.00 20.00     0.052 A 
HETATM    3  C3  DEX  2957       4.181  36.632 237.545  1.00 20.00     0.172 A 
HETATM    4  C4  DEX  2957       2.811  37.240 237.495  1.00 20.00     0.058 A 
HETATM    5  C5  DEX  2957       1.795  36.557 236.975  1.00 20.00    -0.061 A 
HETATM    6  C6  DEX  2957       0.460  37.240 236.950  1.00 20.00     0.036 C 
HETATM    7  C7  DEX  2957      -0.098  37.214 235.530  1.00 20.00     0.013 C 
HETATM    8  C8  DEX  2957      -0.013  35.839 234.875  1.00 20.00     0.035 C 
HETATM    9  C9  DEX  2957       1.358  35.172 234.985  1.00 20.00     0.147 C 
HETATM   10  C10 DEX  2957       1.908  35.167 236.413  1.00 20.00     0.036 A 
HETATM   11  C11 DEX  2957       1.513  33.870 234.200  1.00 20.00     0.160 C 
HETATM   12  C12 DEX  2957       0.840  33.834 232.832  1.00 20.00     0.048 C 
HETATM   13  C13 DEX  2957      -0.587  34.380 232.870  1.00 20.00     0.001 C 
HETATM   14  C14 DEX  2957      -0.549  35.795 233.446  1.00 20.00     0.005 C 
HETATM   15  C15 DEX  2957      -1.887  36.430 233.085  1.00 20.00     0.013 C 
HETATM   16  C16 DEX  2957      -2.247  35.780 231.752  1.00 20.00     0.025 C 
HETATM   17  C17 DEX  2957      -1.190  34.707 231.504  1.00 20.00     0.131 C 
HETATM   18  C18 DEX  2957      -1.496  33.419 233.635  1.00 20.00     0.019 C 
HETATM   19  C19 DEX  2957       1.164  34.228 237.359  1.00 20.00     0.028 C 
HETATM   20  C22 DEX  2957      -2.411  36.831 230.658  1.00 20.00     0.013 C 
HETATM   21  F1  DEX  2957       2.187  36.003 234.293  1.00 20.00    -0.238 F 
HETATM   22  O1  DEX  2957       5.111  37.206 238.106  1.00 20.00    -0.289 OA
ENDROOT
BRANCH  17  23
HETATM   23  C20 DEX  2957      -1.730  33.497 230.759  1.00 20.00     0.185 C 
HETATM   24  O4  DEX  2957      -2.943  33.328 230.645  1.00 20.00    -0.292 OA
BRANCH  23  25
HETATM   25  C21 DEX  2957      -0.827  32.443 230.142  1.00 20.00     0.245 C 
BRANCH  25  26
HETATM   26  O5  DEX  2957      -0.063  33.014 229.090  1.00 20.00    -0.393 OA
ATOM     27  H5  DEX  2957       0.839  33.123 229.367  1.00  0.00     0.209 HD
ENDBRANCH  25  26
ENDBRANCH  23  25
ENDBRANCH  17  23
BRANCH  17  28
HETATM   28  O3  DEX  2957      -0.198  35.291 230.670  1.00 20.00    -0.381 OA
ATOM     29  H3  DEX  2957       0.221  34.616 230.150  1.00  0.00     0.211 HD
ENDBRANCH  17  28
BRANCH  11  30
HETATM   30  O2  DEX  2957       0.964  32.791 234.942  1.00 20.00    -0.392 OA
ATOM     31  H2  DEX  2957       1.205  31.966 234.537  1.00  0.00     0.210 HD
ENDBRANCH  11  30
TORSDOF 5
ENDMDL
MODEL 4
REMARK VINA RESULT:      -6.5      2.109      2.769
REMARK  5 active torsions:
REMARK  status: ('A' for Active; 'I' for Inactive)
REMARK    1  A    between atoms: C11_11  and  O2_25 
REMARK    2  A    between atoms: C17_17  and  C20_20 
REMARK    3  A    between atoms: C17_17  and  O3_27 
REMARK    4  A    between atoms: C20_20  and  C21_21 
REMARK    5  A    between atoms: C21_21  and  O5_30 
ROOT
HETATM    1  C1  DEX  2957      -0.690  34.389 229.333  1.00 20.00    -0.006 A 
HETATM    2  C2  DEX  2957      -0.386  34.168 228.059  1.00 20.00     0.052 A 
HETATM    3  C3  DEX  2957       0.145  32.816 227.687  1.00 20.00     0.172 A 
HETATM    4  C4  DEX  2957       0.417  31.833 228.786  1.00 20.00     0.058 A 
HETATM    5  C5  DEX  2957       0.092  32.128 230.042  1.00 20.00    -0.061 A 
HETATM    6  C6  DEX  2957       0.408  31.097 231.085  1.00 20.00     0.036 C 
HETATM    7  C7  DEX  2957       1.229  31.738 232.201  1.00 20.00     0.013 C 
HETATM    8  C8  DEX  2957       0.650  33.061 232.691  1.00 20.00     0.035 C 
HETATM    9  C9  DEX  2957       0.296  34.045 231.576  1.00 20.00     0.147 C 
HETATM   10  C10 DEX  2957      -0.554  33.417 230.470  1.00 20.00     0.036 A 
HETATM   11  C11 DEX  2957      -0.133  35.435 232.046  1.00 20.00     0.160 C 
HETATM   12  C12 DEX  2957       0.629  35.996 233.242  1.00 20.00     0.048 C 
HETATM   13  C13 DEX  2957       0.787  34.973 234.365  1.00 20.00     0.001 C 
HETATM   14  C14 DEX  2957       1.467  33.728 233.794  1.00 20.00     0.005 C 
HETATM   15  C15 DEX  2957       1.966  32.935 234.997  1.00 20.00     0.013 C 
HETATM   16  C16 DEX  2957       2.298  34.011 236.026  1.00 20.00     0.025 C 
HETATM   17  C17 DEX  2957       1.828  35.333 235.425  1.00 20.00     0.131 C 
HETATM   18  C18 DEX  2957      -0.565  34.699 235.021  1.00 20.00     0.019 C 
HETATM   19  C19 DEX  2957      -1.984  33.093 230.898  1.00 20.00     0.028 C 
HETATM   20  C22 DEX  2957       3.765  33.940 236.436  1.00 20.00     0.013 C 
HETATM   21  F1  DEX  2957       1.493  34.320 230.984  1.00 20.00    -0.238 F 
HETATM   22  O1  DEX  2957       0.350  32.527 226.511  1.00 20.00    -0.289 OA
ENDROOT
BRANCH  17  23
HETATM   23  C20 DEX  2957       1.334  36.321 236.469  1.00 20.00     0.185 C 
HETATM   24  O4  DEX  2957       0.807  35.920 237.505  1.00 20.00    -0.292 OA
BRANCH  23  25
HETATM   25  C21 DEX  2957       1.443  37.827 236.291  1.00 20.00     0.245 C 
BRANCH  25  26
HETATM   26  O5  DEX  2957       0.148  38.408 236.276  1.00 20.00    -0.393 OA
ATOM     27  H5  DEX  2957      -0.212  38.420 237.155  1.00  0.00     0.209 HD
ENDBRANCH  25  26
ENDBRANCH  23  25
ENDBRANCH  17  23
BRANCH  17  28
HETATM   28  O3  DEX  2957       2.959  35.927 234.803  1.00 20.00    -0.381 OA
ATOM     29  H3  DEX  2957       3.575  35.252 234.544  1.00  0.00     0.211 HD
ENDBRANCH  17  28
BRANCH  11  30
HETATM   30  O2  DEX  2957      -1.503  35.416 232.420  1.00 20.00    -0.392 OA
ATOM     31  H2  DEX  2957      -1.621  34.859 233.181  1.00  0.00     0.210 HD
ENDBRANCH  11  30
TORSDOF 5
ENDMDL
MODEL 5
REMARK VINA RESULT:      -6.3      2.416      3.735
REMARK  5 active torsions:
REMARK  status: ('A' for Active; 'I' for Inactive)
REMARK    1  A    between atoms: C11_11  and  O2_25 
REMARK    2  A    between atoms: C17_17  and  C20_20 
REMARK    3  A    between atoms: C17_17  and  O3_27 
REMARK    4  A    between atoms: C20_20  and  C21_21 
REMARK    5  A    between atoms: C21_21  and  O5_30 
ROOT
HETATM    1  C1  DEX  2957      -0.766  30.908 232.830  1.00 20.00    -0.006 A 
HETATM    2  C2  DEX  2957      -1.829  30.729 232.053  1.00 20.00     0.052 A 
HETATM    3  C3  DEX  2957      -1.986  31.623 230.859  1.00 20.00     0.172 A 
HETATM    4  C4  DEX  2957      -1.004  32.741 230.675  1.00 20.00     0.058 A 
HETATM    5  C5  DEX  2957       0.033  32.862 231.499  1.00 20.00    -0.061 A 
HETATM    6  C6  DEX  2957       0.962  34.015 231.257  1.00 20.00     0.036 C 
HETATM    7  C7  DEX  2957       1.121  34.819 232.544  1.00 20.00     0.013 C 
HETATM    8  C8  DEX  2957       1.403  33.950 233.766  1.00 20.00     0.035 C 
HETATM    9  C9  DEX  2957       0.457  32.759 233.924  1.00 20.00     0.147 C 
HETATM   10  C10 DEX  2957       0.318  31.931 232.645  1.00 20.00     0.036 A 
HETATM   11  C11 DEX  2957       0.616  31.970 235.222  1.00 20.00     0.160 C 
HETATM   12  C12 DEX  2957       0.895  32.797 236.473  1.00 20.00     0.048 C 
HETATM   13  C13 DEX  2957       1.973  33.855 236.244  1.00 20.00     0.001 C 
HETATM   14  C14 DEX  2957       1.547  34.734 235.068  1.00 20.00     0.005 C 
HETATM   15  C15 DEX  2957       2.414  35.985 235.144  1.00 20.00     0.013 C 
HETATM   16  C16 DEX  2957       2.653  36.167 236.640  1.00 20.00     0.025 C 
HETATM   17  C17 DEX  2957       2.052  34.939 237.319  1.00 20.00     0.131 C 
HETATM   18  C18 DEX  2957       3.335  33.187 236.062  1.00 20.00     0.019 C 
HETATM   19  C19 DEX  2957       1.569  31.133 232.286  1.00 20.00     0.028 C 
HETATM   20  C22 DEX  2957       2.135  37.521 237.116  1.00 20.00     0.013 C 
HETATM   21  F1  DEX  2957      -0.767  33.331 234.106  1.00 20.00    -0.238 F 
HETATM   22  O1  DEX  2957      -2.895  31.437 230.054  1.00 20.00    -0.289 OA
ENDROOT
BRANCH  17  23
HETATM   23  C20 DEX  2957       2.808  34.518 238.569  1.00 20.00     0.185 C 
HETATM   24  O4  DEX  2957       2.391  33.597 239.268  1.00 20.00    -0.292 OA
BRANCH  23  25
HETATM   25  C21 DEX  2957       4.083  35.207 239.027  1.00 20.00     0.245 C 
BRANCH  25  26
HETATM   26  O5  DEX  2957       3.821  36.001 240.174  1.00 20.00    -0.393 OA
ATOM     27  H5  DEX  2957       3.699  35.445 240.933  1.00  0.00     0.209 HD
ENDBRANCH  25  26
ENDBRANCH  23  25
ENDBRANCH  17  23
BRANCH  17  28
HETATM   28  O3  DEX  2957       0.742  35.298 237.735  1.00 20.00    -0.381 OA
ATOM     29  H3  DEX  2957       0.312  35.794 237.049  1.00  0.00     0.211 HD
ENDBRANCH  17  28
BRANCH  11  30
HETATM   30  O2  DEX  2957       1.695  31.055 235.101  1.00 20.00    -0.392 OA
ATOM     31  H2  DEX  2957       1.664  30.423 235.811  1.00  0.00     0.210 HD
ENDBRANCH  11  30
TORSDOF 5
ENDMDL
MODEL 6
REMARK VINA RESULT:      -6.2      2.235      3.999
REMARK  5 active torsions:
REMARK  status: ('A' for Active; 'I' for Inactive)
REMARK    1  A    between atoms: C11_11  and  O2_25 
REMARK    2  A    between atoms: C17_17  and  C20_20 
REMARK    3  A    between atoms: C17_17  and  O3_27 
REMARK    4  A    between atoms: C20_20  and  C21_21 
REMARK    5  A    between atoms: C21_21  and  O5_30 
ROOT
HETATM    1  C1  DEX  2957      -1.302  33.430 234.332  1.00 20.00    -0.006 A 
HETATM    2  C2  DEX  2957      -2.459  33.933 233.913  1.00 20.00     0.052 A 
HETATM    3  C3  DEX  2957      -2.430  35.230 233.161  1.00 20.00     0.172 A 
HETATM    4  C4  DEX  2957      -1.120  35.945 233.028  1.00 20.00     0.058 A 
HETATM    5  C5  DEX  2957      -0.002  35.382 233.480  1.00 20.00    -0.061 A 
HETATM    6  C6  DEX  2957       1.266  36.167 233.320  1.00 20.00     0.036 C 
HETATM    7  C7  DEX  2957       1.964  36.285 234.673  1.00 20.00     0.013 C 
HETATM    8  C8  DEX  2957       2.062  34.958 235.417  1.00 20.00     0.035 C 
HETATM    9  C9  DEX  2957       0.749  34.179 235.494  1.00 20.00     0.147 C 
HETATM   10  C10 DEX  2957       0.061  34.030 234.136  1.00 20.00     0.036 A 
HETATM   11  C11 DEX  2957       0.784  32.928 236.371  1.00 20.00     0.160 C 
HETATM   12  C12 DEX  2957       1.592  33.042 237.659  1.00 20.00     0.048 C 
HETATM   13  C13 DEX  2957       2.957  33.693 237.437  1.00 20.00     0.001 C 
HETATM   14  C14 DEX  2957       2.741  35.057 236.781  1.00 20.00     0.005 C 
HETATM   15  C15 DEX  2957       4.050  35.818 236.958  1.00 20.00     0.013 C 
HETATM   16  C16 DEX  2957       4.595  35.294 238.283  1.00 20.00     0.025 C 
HETATM   17  C17 DEX  2957       3.663  34.162 238.708  1.00 20.00     0.131 C 
HETATM   18  C18 DEX  2957       3.862  32.754 236.641  1.00 20.00     0.019 C 
HETATM   19  C19 DEX  2957       0.783  33.088 233.176  1.00 20.00     0.028 C 
HETATM   20  C22 DEX  2957       4.778  36.429 239.286  1.00 20.00     0.013 C 
HETATM   21  F1  DEX  2957      -0.074  34.990 236.218  1.00 20.00    -0.238 F 
HETATM   22  O1  DEX  2957      -3.457  35.688 232.668  1.00 20.00    -0.289 OA
ENDROOT
BRANCH  17  23
HETATM   23  C20 DEX  2957       4.377  33.054 239.466  1.00 20.00     0.185 C 
HETATM   24  O4  DEX  2957       5.599  33.075 239.593  1.00 20.00    -0.292 OA
BRANCH  23  25
HETATM   25  C21 DEX  2957       3.641  31.875 240.080  1.00 20.00     0.245 C 
BRANCH  25  26
HETATM   26  O5  DEX  2957       2.747  32.331 241.085  1.00 20.00    -0.393 OA
ATOM     27  H5  DEX  2957       3.117  33.084 241.529  1.00  0.00     0.209 HD
ENDBRANCH  25  26
ENDBRANCH  23  25
ENDBRANCH  17  23
BRANCH  17  28
HETATM   28  O3  DEX  2957       2.715  34.724 239.604  1.00 20.00    -0.381 OA
ATOM     29  H3  DEX  2957       1.852  34.370 239.422  1.00  0.00     0.211 HD
ENDBRANCH  17  28
BRANCH  11  30
HETATM   30  O2  DEX  2957       1.345  31.845 235.643  1.00 20.00    -0.392 OA
ATOM     31  H2  DEX  2957       1.166  31.027 236.093  1.00  0.00     0.210 HD
ENDBRANCH  11  30
TORSDOF 5
ENDMDL
MODEL 7
REMARK VINA RESULT:      -6.1      2.507      3.844
REMARK  5 active torsions:
REMARK  status: ('A' for Active; 'I' for Inactive)
REMARK    1  A    between atoms: C11_11  and  O2_25 
REMARK    2  A    between atoms: C17_17  and  C20_20 
REMARK    3  A    between atoms: C17_17  and  O3_27 
REMARK    4  A    between atoms: C20_20  and  C21_21 
REMARK    5  A    between atoms: C21_21  and  O5_30 
ROOT
HETATM    1  C1  DEX  2957      -3.806  32.796 234.129  1.00 20.00    -0.006 A 
HETATM    2  C2  DEX  2957      -5.123  32.969 234.078  1.00 20.00     0.052 A 
HETATM    3  C3  DEX  2957      -5.648  34.149 233.316  1.00 20.00     0.172 A 
HETATM    4  C4  DEX  2957      -4.661  35.131 232.758  1.00 20.00     0.058 A 
HETATM    5  C5  DEX  2957      -3.355  34.893 232.854  1.00 20.00    -0.061 A 
HETATM    6  C6  DEX  2957      -2.434  35.929 232.283  1.00 20.00     0.036 C 
HETATM    7  C7  DEX  2957      -1.421  36.350 233.345  1.00 20.00     0.013 C 
HETATM    8  C8  DEX  2957      -0.774  35.170 234.061  1.00 20.00     0.035 C 
HETATM    9  C9  DEX  2957      -1.764  34.120 234.568  1.00 20.00     0.147 C 
HETATM   10  C10 DEX  2957      -2.761  33.672 233.498  1.00 20.00     0.036 A 
HETATM   11  C11 DEX  2957      -1.155  33.013 235.427  1.00 20.00     0.160 C 
HETATM   12  C12 DEX  2957      -0.059  33.448 236.395  1.00 20.00     0.048 C 
HETATM   13  C13 DEX  2957       0.967  34.370 235.737  1.00 20.00     0.001 C 
HETATM   14  C14 DEX  2957       0.228  35.569 235.141  1.00 20.00     0.005 C 
HETATM   15  C15 DEX  2957       1.294  36.628 234.877  1.00 20.00     0.013 C 
HETATM   16  C16 DEX  2957       2.320  36.389 235.980  1.00 20.00     0.025 C 
HETATM   17  C17 DEX  2957       1.874  35.124 236.709  1.00 20.00     0.131 C 
HETATM   18  C18 DEX  2957       1.804  33.588 234.727  1.00 20.00     0.019 C 
HETATM   19  C19 DEX  2957      -2.140  32.825 232.390  1.00 20.00     0.028 C 
HETATM   20  C22 DEX  2957       2.497  37.636 236.841  1.00 20.00     0.013 C 
HETATM   21  F1  DEX  2957      -2.514  34.791 235.488  1.00 20.00    -0.238 F 
HETATM   22  O1  DEX  2957      -6.856  34.301 233.155  1.00 20.00    -0.289 OA
ENDROOT
BRANCH  17  23
HETATM   23  C20 DEX  2957       3.036  34.299 237.239  1.00 20.00     0.185 C 
HETATM   24  O4  DEX  2957       4.126  34.322 236.670  1.00 20.00    -0.292 OA
BRANCH  23  25
HETATM   25  C21 DEX  2957       2.917  33.406 238.463  1.00 20.00     0.245 C 
BRANCH  25  26
HETATM   26  O5  DEX  2957       2.668  34.194 239.616  1.00 20.00    -0.393 OA
ATOM     27  H5  DEX  2957       2.688  35.116 239.389  1.00  0.00     0.209 HD
ENDBRANCH  25  26
ENDBRANCH  23  25
ENDBRANCH  17  23
BRANCH  17  28
HETATM   28  O3  DEX  2957       1.122  35.544 237.840  1.00 20.00    -0.381 OA
ATOM     29  H3  DEX  2957       1.560  36.272 238.264  1.00  0.00     0.211 HD
ENDBRANCH  17  28
BRANCH  11  30
HETATM   30  O2  DEX  2957      -0.578  32.018 234.594  1.00 20.00    -0.392 OA
ATOM     31  H2  DEX  2957      -0.046  32.429 233.923  1.00  0.00     0.210 HD
ENDBRANCH  11  30
TORSDOF 5
ENDMDL
MODEL 8
REMARK VINA RESULT:      -5.8      2.128      3.431
REMARK  5 active torsions:
REMARK  status: ('A' for Active; 'I' for Inactive)
REMARK    1  A    between atoms: C11_11  and  O2_25 
REMARK    2  A    between atoms: C17_17  and  C20_20 
REMARK    3  A    between atoms: C17_17  and  O3_27 
REMARK    4  A    between atoms: C20_20  and  C21_21 
REMARK    5  A    between atoms: C21_21  and  O5_30 
ROOT
HETATM    1  C1  DEX  2957      -1.732  32.341 230.892  1.00 20.00    -0.006 A 
HETATM    2  C2  DEX  2957      -2.597  32.641 229.929  1.00 20.00     0.052 A 
HETATM    3  C3  DEX  2957      -2.188  33.661 228.909  1.00 20.00     0.172 A 
HETATM    4  C4  DEX  2957      -0.881  34.370 229.098  1.00 20.00     0.058 A 
HETATM    5  C5  DEX  2957      -0.068  34.020 230.092  1.00 20.00    -0.061 A 
HETATM    6  C6  DEX  2957       1.215  34.787 230.221  1.00 20.00     0.036 C 
HETATM    7  C7  DEX  2957       1.341  35.330 231.642  1.00 20.00     0.013 C 
HETATM    8  C8  DEX  2957       1.049  34.287 232.714  1.00 20.00     0.035 C 
HETATM    9  C9  DEX  2957      -0.244  33.500 232.493  1.00 20.00     0.147 C 
HETATM   10  C10 DEX  2957      -0.360  32.926 231.080  1.00 20.00     0.036 A 
HETATM   11  C11 DEX  2957      -0.640  32.564 233.634  1.00 20.00     0.160 C 
HETATM   12  C12 DEX  2957      -0.388  33.091 235.043  1.00 20.00     0.048 C 
HETATM   13  C13 DEX  2957       0.999  33.716 235.194  1.00 20.00     0.001 C 
HETATM   14  C14 DEX  2957       1.151  34.815 234.142  1.00 20.00     0.005 C 
HETATM   15  C15 DEX  2957       2.340  35.659 234.589  1.00 20.00     0.013 C 
HETATM   16  C16 DEX  2957       2.290  35.574 236.112  1.00 20.00     0.025 C 
HETATM   17  C17 DEX  2957       1.189  34.572 236.446  1.00 20.00     0.131 C 
HETATM   18  C18 DEX  2957       2.073  32.632 235.123  1.00 20.00     0.019 C 
HETATM   19  C19 DEX  2957       0.609  31.781 230.796  1.00 20.00     0.028 C 
HETATM   20  C22 DEX  2957       2.151  36.961 236.732  1.00 20.00     0.013 C 
HETATM   21  F1  DEX  2957      -1.223  34.445 232.570  1.00 20.00    -0.238 F 
HETATM   22  O1  DEX  2957      -2.908  33.903 227.944  1.00 20.00    -0.289 OA
ENDROOT
BRANCH  17  23
HETATM   23  C20 DEX  2957       1.473  33.771 237.707  1.00 20.00     0.185 C 
HETATM   24  O4  DEX  2957       0.598  33.066 238.206  1.00 20.00    -0.292 OA
BRANCH  23  25
HETATM   25  C21 DEX  2957       2.815  33.809 238.417  1.00 20.00     0.245 C 
BRANCH  25  26
HETATM   26  O5  DEX  2957       2.715  34.581 239.604  1.00 20.00    -0.393 OA
ATOM     27  H5  DEX  2957       2.004  34.254 240.144  1.00  0.00     0.209 HD
ENDBRANCH  25  26
ENDBRANCH  23  25
ENDBRANCH  17  23
BRANCH  17  28
HETATM   28  O3  DEX  2957       0.010  35.324 236.696  1.00 20.00    -0.381 OA
ATOM     29  H3  DEX  2957      -0.221  35.825 235.923  1.00  0.00     0.211 HD
ENDBRANCH  17  28
BRANCH  11  30
HETATM   30  O2  DEX  2957       0.081  31.345 233.531  1.00 20.00    -0.392 OA
ATOM     31  H2  DEX  2957       0.471  31.274 232.667  1.00  0.00     0.210 HD
ENDBRANCH  11  30
TORSDOF 5
ENDMDL
MODEL 9
REMARK VINA RESULT:      -5.8      2.346      3.609
REMARK  5 active torsions:
REMARK  status: ('A' for Active; 'I' for Inactive)
REMARK    1  A    between atoms: C11_11  and  O2_25 
REMARK    2  A    between atoms: C17_17  and  C20_20 
REMARK    3  A    between atoms: C17_17  and  O3_27 
REMARK    4  A    between atoms: C20_20  and  C21_21 
REMARK    5  A    between atoms: C21_21  and  O5_30 
ROOT
HETATM    1  C1  DEX  2957      -2.854  35.893 230.599  1.00 20.00    -0.006 A 
HETATM    2  C2  DEX  2957      -2.956  36.853 229.686  1.00 20.00     0.052 A 
HETATM    3  C3  DEX  2957      -1.737  37.192 228.882  1.00 20.00     0.172 A 
HETATM    4  C4  DEX  2957      -0.444  36.519 229.235  1.00 20.00     0.058 A 
HETATM    5  C5  DEX  2957      -0.417  35.571 230.168  1.00 20.00    -0.061 A 
HETATM    6  C6  DEX  2957       0.916  34.955 230.471  1.00 20.00     0.036 C 
HETATM    7  C7  DEX  2957       1.188  35.042 231.971  1.00 20.00     0.013 C 
HETATM    8  C8  DEX  2957       0.007  34.589 232.823  1.00 20.00     0.035 C 
HETATM    9  C9  DEX  2957      -1.333  35.209 232.426  1.00 20.00     0.147 C 
HETATM   10  C10 DEX  2957      -1.624  35.096 230.929  1.00 20.00     0.036 A 
HETATM   11  C11 DEX  2957      -2.498  34.897 233.364  1.00 20.00     0.160 C 
HETATM   12  C12 DEX  2957      -2.166  34.873 234.852  1.00 20.00     0.048 C 
HETATM   13  C13 DEX  2957      -0.889  34.089 235.153  1.00 20.00     0.001 C 
HETATM   14  C14 DEX  2957       0.251  34.687 234.327  1.00 20.00     0.005 C 
HETATM   15  C15 DEX  2957       1.540  34.165 234.954  1.00 20.00     0.013 C 
HETATM   16  C16 DEX  2957       1.190  34.025 236.432  1.00 20.00     0.025 C 
HETATM   17  C17 DEX  2957      -0.303  34.318 236.546  1.00 20.00     0.131 C 
HETATM   18  C18 DEX  2957      -1.119  32.599 234.911  1.00 20.00     0.019 C 
HETATM   19  C19 DEX  2957      -1.929  33.674 230.464  1.00 20.00     0.028 C 
HETATM   20  C22 DEX  2957       2.113  34.882 237.295  1.00 20.00     0.013 C 
HETATM   21  F1  DEX  2957      -1.159  36.543 232.650  1.00 20.00    -0.238 F 
HETATM   22  O1  DEX  2957      -1.801  38.001 227.960  1.00 20.00    -0.289 OA
ENDROOT
BRANCH  17  23
HETATM   23  C20 DEX  2957      -0.987  33.520 237.644  1.00 20.00     0.185 C 
HETATM   24  O4  DEX  2957      -0.407  32.578 238.181  1.00 20.00    -0.292 OA
BRANCH  23  25
HETATM   25  C21 DEX  2957      -2.399  33.820 238.119  1.00 20.00     0.245 C 
BRANCH  25  26
HETATM   26  O5  DEX  2957      -2.538  33.458 239.485  1.00 20.00    -0.393 OA
ATOM     27  H5  DEX  2957      -2.745  34.226 240.004  1.00  0.00     0.209 HD
ENDBRANCH  25  26
ENDBRANCH  23  25
ENDBRANCH  17  23
BRANCH  17  28
HETATM   28  O3  DEX  2957      -0.429  35.689 236.899  1.00 20.00    -0.381 OA
ATOM     29  H3  DEX  2957      -1.297  35.852 237.247  1.00  0.00     0.211 HD
ENDBRANCH  17  28
BRANCH  11  30
HETATM   30  O2  DEX  2957      -3.035  33.619 233.056  1.00 20.00    -0.392 OA
ATOM     31  H2  DEX  2957      -2.446  32.939 233.362  1.00  0.00     0.210 HD
ENDBRANCH  11  30
TORSDOF 5
ENDMDL
