MODEL 1
REMARK VINA RESULT:      -7.5      0.000      0.000
REMARK  7 active torsions:
REMARK  status: ('A' for Active; 'I' for Inactive)
REMARK    1  A    between atoms: C32_3  and  C33_2 
REMARK    2  A    between atoms: C30_4  and  C32_3 
REMARK    3  A    between atoms: C21_14  and  C9_18 
REMARK    4  A    between atoms: C7_20  and  S10_27 
REMARK    5  A    between atoms: C4_23  and  O3_24 
REMARK    6  A    between atoms: C2_25  and  O3_24 
REMARK    7  A    between atoms: N14_30  and  S10_27 
ROOT
HETATM    1  C9  VIA  7634      -0.935  36.058 230.835  1.00 20.00     0.043 A 
HETATM    2  C8  VIA  7634      -1.895  36.875 230.213  1.00 20.00     0.043 A 
HETATM    3  C7  VIA  7634      -1.913  37.073 228.820  1.00 20.00     0.080 A 
HETATM    4  C6  VIA  7634      -0.935  36.426 228.091  1.00 20.00     0.028 A 
HETATM    5  C5  VIA  7634      -0.004  35.644 228.684  1.00 20.00     0.039 A 
HETATM    6  C4  VIA  7634       0.012  35.444 230.088  1.00 20.00     0.082 A 
ENDROOT
BRANCH   1   7
HETATM    7  C21 VIA  7634      -1.097  35.994 232.300  1.00 20.00     0.121 A 
HETATM    8  N22 VIA  7634      -2.322  35.448 232.673  1.00 20.00    -0.307 N 
HETATM    9  C23 VIA  7634      -2.694  35.274 234.010  1.00 20.00     0.277 A 
ATOM     10  H22 VIA  7634      -2.974  35.164 231.943  1.00  0.00     0.170 HD
HETATM   11  O27 VIA  7634      -3.788  34.786 234.283  1.00 20.00    -0.265 OA
HETATM   12  C24 VIA  7634      -1.686  35.727 234.901  1.00 20.00     0.147 A 
HETATM   13  N28 VIA  7634      -1.637  35.744 236.282  1.00 20.00    -0.289 N 
HETATM   14  C25 VIA  7634      -0.474  36.275 234.429  1.00 20.00     0.092 A 
HETATM   15  C31 VIA  7634      -2.671  35.279 237.186  1.00 20.00     0.178 C 
HETATM   16  N29 VIA  7634      -0.456  36.271 236.671  1.00 20.00    -0.300 N 
HETATM   17  C30 VIA  7634       0.296  36.614 235.601  1.00 20.00     0.055 A 
ATOM     18  H29 VIA  7634      -0.170  36.395 237.642  1.00  0.00     0.187 HD
HETATM   19  N26 VIA  7634      -0.142  36.419 233.100  1.00 20.00    -0.338 N 
ATOM     20  H26 VIA  7634       0.741  36.812 232.774  1.00  0.00     0.167 HD
BRANCH  17  21
HETATM   21  C32 VIA  7634       1.625  37.210 235.658  1.00 20.00     0.061 C 
BRANCH  21  22
HETATM   22  C33 VIA  7634       2.016  37.538 237.152  1.00 20.00     0.002 C 
HETATM   23  C34 VIA  7634       3.493  37.507 237.471  1.00 20.00     0.005 C 
ENDBRANCH  21  22
ENDBRANCH  17  21
ENDBRANCH   1   7
BRANCH   6  24
HETATM   24  O3  VIA  7634       0.873  34.703 230.751  1.00 20.00    -0.351 OA
BRANCH  24  25
HETATM   25  C2  VIA  7634       0.733  33.238 230.761  1.00 20.00     0.171 C 
HETATM   26  C1  VIA  7634       0.778  32.822 232.184  1.00 20.00     0.034 C 
ENDBRANCH  24  25
ENDBRANCH   6  24
BRANCH   3  27
HETATM   27  S10 VIA  7634      -3.103  38.074 228.066  1.00 20.00     0.261 S 
HETATM   28  O11 VIA  7634      -3.515  37.579 226.862  1.00 20.00    -0.200 OA
HETATM   29  O12 VIA  7634      -4.111  38.325 229.000  1.00 20.00    -0.200 OA
BRANCH  27  30
HETATM   30  N14 VIA  7634      -2.349  39.469 227.736  1.00 20.00    -0.303 N 
HETATM   31  C15 VIA  7634      -1.697  40.254 228.748  1.00 20.00     0.165 C 
HETATM   32  C16 VIA  7634      -0.321  40.769 228.277  1.00 20.00     0.292 C 
HETATM   33  N17 VIA  7634      -0.476  41.569 227.074  1.00 20.00     0.087 N 
HETATM   34  C18 VIA  7634      -1.219  40.895 226.011  1.00 20.00     0.292 C 
HETATM   35  C20 VIA  7634       0.749  42.208 226.648  1.00 20.00     0.310 C 
HETATM   36  C19 VIA  7634      -2.518  40.215 226.513  1.00 20.00     0.165 C 
ENDBRANCH  27  30
ENDBRANCH   3  27
TORSDOF 7
ENDMDL
MODEL 2
REMARK VINA RESULT:      -7.4      2.792      5.029
REMARK  7 active torsions:
REMARK  status: ('A' for Active; 'I' for Inactive)
REMARK    1  A    between atoms: C32_3  and  C33_2 
REMARK    2  A    between atoms: C30_4  and  C32_3 
REMARK    3  A    between atoms: C21_14  and  C9_18 
REMARK    4  A    between atoms: C7_20  and  S10_27 
REMARK    5  A    between atoms: C4_23  and  O3_24 
REMARK    6  A    between atoms: C2_25  and  O3_24 
REMARK    7  A    between atoms: N14_30  and  S10_27 
ROOT
HETATM    1  C9  VIA  7634      -2.536  37.575 228.375  1.00 20.00     0.043 A 
HETATM    2  C8  VIA  7634      -1.832  38.699 227.909  1.00 20.00     0.043 A 
HETATM    3  C7  VIA  7634      -2.378  39.573 226.952  1.00 20.00     0.080 A 
HETATM    4  C6  VIA  7634      -3.643  39.270 226.488  1.00 20.00     0.028 A 
HETATM    5  C5  VIA  7634      -4.323  38.187 226.928  1.00 20.00     0.039 A 
HETATM    6  C4  VIA  7634      -3.773  37.307 227.894  1.00 20.00     0.082 A 
ENDROOT
BRANCH   1   7
HETATM    7  C21 VIA  7634      -1.777  36.794 229.372  1.00 20.00     0.121 A 
HETATM    8  N22 VIA  7634      -2.072  37.174 230.678  1.00 20.00    -0.307 N 
HETATM    9  C23 VIA  7634      -1.485  36.565 231.790  1.00 20.00     0.277 A 
ATOM     10  H22 VIA  7634      -2.743  37.927 230.829  1.00  0.00     0.170 HD
HETATM   11  O27 VIA  7634      -1.781  36.940 232.923  1.00 20.00    -0.265 OA
HETATM   12  C24 VIA  7634      -0.569  35.548 231.413  1.00 20.00     0.147 A 
HETATM   13  N28 VIA  7634       0.218  34.707 232.177  1.00 20.00    -0.289 N 
HETATM   14  C25 VIA  7634      -0.329  35.235 230.059  1.00 20.00     0.092 A 
HETATM   15  C31 VIA  7634       0.295  34.679 233.625  1.00 20.00     0.178 C 
HETATM   16  N29 VIA  7634       0.922  33.900 231.354  1.00 20.00    -0.300 N 
HETATM   17  C30 VIA  7634       0.639  34.166 230.059  1.00 20.00     0.055 A 
ATOM     18  H29 VIA  7634       1.579  33.186 231.668  1.00  0.00     0.187 HD
HETATM   19  N26 VIA  7634      -0.938  35.855 228.990  1.00 20.00    -0.338 N 
ATOM     20  H26 VIA  7634      -0.758  35.614 228.015  1.00  0.00     0.167 HD
BRANCH  17  21
HETATM   21  C32 VIA  7634       1.220  33.483 228.910  1.00 20.00     0.061 C 
BRANCH  21  22
HETATM   22  C33 VIA  7634       2.115  34.480 228.074  1.00 20.00     0.002 C 
HETATM   23  C34 VIA  7634       1.872  34.496 226.582  1.00 20.00     0.005 C 
ENDBRANCH  21  22
ENDBRANCH  17  21
ENDBRANCH   1   7
BRANCH   6  24
HETATM   24  O3  VIA  7634      -4.357  36.234 228.381  1.00 20.00    -0.351 OA
BRANCH  24  25
HETATM   25  C2  VIA  7634      -4.500  35.028 227.550  1.00 20.00     0.171 C 
HETATM   26  C1  VIA  7634      -4.277  33.870 228.450  1.00 20.00     0.034 C 
ENDBRANCH  24  25
ENDBRANCH   6  24
BRANCH   3  27
HETATM   27  S10 VIA  7634      -1.506  40.956 226.390  1.00 20.00     0.261 S 
HETATM   28  O11 VIA  7634      -1.130  40.842 225.083  1.00 20.00    -0.200 OA
HETATM   29  O12 VIA  7634      -2.249  42.094 226.715  1.00 20.00    -0.200 OA
BRANCH  27  30
HETATM   30  N14 VIA  7634      -0.131  40.978 227.246  1.00 20.00    -0.303 N 
HETATM   31  C15 VIA  7634       1.057  40.293 226.816  1.00 20.00     0.165 C 
HETATM   32  C16 VIA  7634       2.319  41.162 227.001  1.00 20.00     0.292 C 
HETATM   33  N17 VIA  7634       2.459  41.541 228.397  1.00 20.00     0.087 N 
HETATM   34  C18 VIA  7634       1.262  42.159 228.962  1.00 20.00     0.292 C 
HETATM   35  C20 VIA  7634       3.694  42.238 228.680  1.00 20.00     0.310 C 
HETATM   36  C19 VIA  7634      -0.038  41.387 228.626  1.00 20.00     0.165 C 
ENDBRANCH  27  30
ENDBRANCH   3  27
TORSDOF 7
ENDMDL
MODEL 3
REMARK VINA RESULT:      -7.2      3.482      6.165
REMARK  7 active torsions:
REMARK  status: ('A' for Active; 'I' for Inactive)
REMARK    1  A    between atoms: C32_3  and  C33_2 
REMARK    2  A    between atoms: C30_4  and  C32_3 
REMARK    3  A    between atoms: C21_14  and  C9_18 
REMARK    4  A    between atoms: C7_20  and  S10_27 
REMARK    5  A    between atoms: C4_23  and  O3_24 
REMARK    6  A    between atoms: C2_25  and  O3_24 
REMARK    7  A    between atoms: N14_30  and  S10_27 
ROOT
HETATM    1  C9  VIA  7634      -1.371  39.014 228.010  1.00 20.00     0.043 A 
HETATM    2  C8  VIA  7634      -0.231  39.787 227.730  1.00 20.00     0.043 A 
HETATM    3  C7  VIA  7634      -0.304  40.976 226.981  1.00 20.00     0.080 A 
HETATM    4  C6  VIA  7634      -1.555  41.345 226.528  1.00 20.00     0.028 A 
HETATM    5  C5  VIA  7634      -2.655  40.602 226.788  1.00 20.00     0.039 A 
HETATM    6  C4  VIA  7634      -2.580  39.405 227.545  1.00 20.00     0.082 A 
ENDROOT
BRANCH   1   7
HETATM    7  C21 VIA  7634      -1.067  37.808 228.805  1.00 20.00     0.121 A 
HETATM    8  N22 VIA  7634      -1.911  37.672 229.904  1.00 20.00    -0.307 N 
HETATM    9  C23 VIA  7634      -1.821  36.599 230.794  1.00 20.00     0.277 A 
ATOM     10  H22 VIA  7634      -2.623  38.384 230.065  1.00  0.00     0.170 HD
HETATM   11  O27 VIA  7634      -2.592  36.528 231.749  1.00 20.00    -0.265 OA
HETATM   12  C24 VIA  7634      -0.777  35.705 230.439  1.00 20.00     0.147 A 
HETATM   13  N28 VIA  7634      -0.345  34.533 231.033  1.00 20.00    -0.289 N 
HETATM   14  C25 VIA  7634       0.035  35.928 229.307  1.00 20.00     0.092 A 
HETATM   15  C31 VIA  7634      -0.891  33.922 232.228  1.00 20.00     0.178 C 
HETATM   16  N29 VIA  7634       0.686  34.035 230.317  1.00 20.00    -0.300 N 
HETATM   17  C30 VIA  7634       0.968  34.830 229.259  1.00 20.00     0.055 A 
ATOM     18  H29 VIA  7634       1.185  33.175 230.543  1.00  0.00     0.187 HD
HETATM   19  N26 VIA  7634      -0.094  36.997 228.448  1.00 20.00    -0.338 N 
ATOM     20  H26 VIA  7634       0.497  37.143 227.629  1.00  0.00     0.167 HD
BRANCH  17  21
HETATM   21  C32 VIA  7634       2.020  34.591 228.279  1.00 20.00     0.061 C 
BRANCH  21  22
HETATM   22  C33 VIA  7634       1.484  33.675 227.110  1.00 20.00     0.002 C 
HETATM   23  C34 VIA  7634       2.371  32.515 226.719  1.00 20.00     0.005 C 
ENDBRANCH  21  22
ENDBRANCH  17  21
ENDBRANCH   1   7
BRANCH   6  24
HETATM   24  O3  VIA  7634      -3.592  38.621 227.849  1.00 20.00    -0.351 OA
BRANCH  24  25
HETATM   25  C2  VIA  7634      -4.421  38.038 226.783  1.00 20.00     0.171 C 
HETATM   26  C1  VIA  7634      -4.026  36.612 226.676  1.00 20.00     0.034 C 
ENDBRANCH  24  25
ENDBRANCH   6  24
BRANCH   3  27
HETATM   27  S10 VIA  7634       1.104  41.922 226.649  1.00 20.00     0.261 S 
HETATM   28  O11 VIA  7634       1.789  41.475 225.556  1.00 20.00    -0.200 OA
HETATM   29  O12 VIA  7634       0.723  43.266 226.623  1.00 20.00    -0.200 OA
BRANCH  27  30
HETATM   30  N14 VIA  7634       2.089  41.691 227.913  1.00 20.00    -0.303 N 
HETATM   31  C15 VIA  7634       3.298  40.920 227.821  1.00 20.00     0.165 C 
HETATM   32  C16 VIA  7634       4.476  41.609 228.541  1.00 20.00     0.292 C 
HETATM   33  N17 VIA  7634       4.146  41.821 229.940  1.00 20.00     0.087 N 
HETATM   34  C18 VIA  7634       2.876  42.513 230.147  1.00 20.00     0.292 C 
HETATM   35  C20 VIA  7634       5.251  42.333 230.718  1.00 20.00     0.310 C 
HETATM   36  C19 VIA  7634       1.722  41.940 229.287  1.00 20.00     0.165 C 
ENDBRANCH  27  30
ENDBRANCH   3  27
TORSDOF 7
ENDMDL
MODEL 4
REMARK VINA RESULT:      -7.1      2.667      4.280
REMARK  7 active torsions:
REMARK  status: ('A' for Active; 'I' for Inactive)
REMARK    1  A    between atoms: C32_3  and  C33_2 
REMARK    2  A    between atoms: C30_4  and  C32_3 
REMARK    3  A    between atoms: C21_14  and  C9_18 
REMARK    4  A    between atoms: C7_20  and  S10_27 
REMARK    5  A    between atoms: C4_23  and  O3_24 
REMARK    6  A    between atoms: C2_25  and  O3_24 
REMARK    7  A    between atoms: N14_30  and  S10_27 
ROOT
HETATM    1  C9  VIA  7634      -1.029  35.740 233.066  1.00 20.00     0.043 A 
HETATM    2  C8  VIA  7634      -0.710  35.861 231.702  1.00 20.00     0.043 A 
HETATM    3  C7  VIA  7634      -1.703  36.017 230.718  1.00 20.00     0.080 A 
HETATM    4  C6  VIA  7634      -3.012  36.041 231.158  1.00 20.00     0.028 A 
HETATM    5  C5  VIA  7634      -3.325  35.918 232.468  1.00 20.00     0.039 A 
HETATM    6  C4  VIA  7634      -2.324  35.763 233.459  1.00 20.00     0.082 A 
ENDROOT
BRANCH   1   7
HETATM    7  C21 VIA  7634       0.162  35.582 233.923  1.00 20.00     0.121 A 
HETATM    8  N22 VIA  7634       0.559  36.782 234.505  1.00 20.00    -0.307 N 
HETATM    9  C23 VIA  7634       1.655  36.876 235.367  1.00 20.00     0.277 A 
ATOM     10  H22 VIA  7634       0.028  37.627 234.293  1.00  0.00     0.170 HD
HETATM   11  O27 VIA  7634       1.961  37.962 235.854  1.00 20.00    -0.265 OA
HETATM   12  C24 VIA  7634       2.291  35.620 235.551  1.00 20.00     0.147 A 
HETATM   13  N28 VIA  7634       3.391  35.262 236.307  1.00 20.00    -0.289 N 
HETATM   14  C25 VIA  7634       1.820  34.454 234.912  1.00 20.00     0.092 A 
HETATM   15  C31 VIA  7634       4.195  36.145 237.128  1.00 20.00     0.178 C 
HETATM   16  N29 VIA  7634       3.609  33.938 236.161  1.00 20.00    -0.300 N 
HETATM   17  C30 VIA  7634       2.695  33.386 235.330  1.00 20.00     0.055 A 
ATOM     18  H29 VIA  7634       4.363  33.422 236.615  1.00  0.00     0.187 HD
HETATM   19  N26 VIA  7634       0.728  34.403 234.075  1.00 20.00    -0.338 N 
ATOM     20  H26 VIA  7634       0.395  33.550 233.625  1.00  0.00     0.167 HD
BRANCH  17  21
HETATM   21  C32 VIA  7634       2.637  31.980 234.952  1.00 20.00     0.061 C 
BRANCH  21  22
HETATM   22  C33 VIA  7634       4.088  31.355 234.936  1.00 20.00     0.002 C 
HETATM   23  C34 VIA  7634       4.419  30.424 236.080  1.00 20.00     0.005 C 
ENDBRANCH  21  22
ENDBRANCH  17  21
ENDBRANCH   1   7
BRANCH   6  24
HETATM   24  O3  VIA  7634      -2.531  35.639 234.752  1.00 20.00    -0.351 OA
BRANCH  24  25
HETATM   25  C2  VIA  7634      -3.063  34.380 235.298  1.00 20.00     0.171 C 
HETATM   26  C1  VIA  7634      -2.134  33.966 236.378  1.00 20.00     0.034 C 
ENDBRANCH  24  25
ENDBRANCH   6  24
BRANCH   3  27
HETATM   27  S10 VIA  7634      -1.299  36.171 229.044  1.00 20.00     0.261 S 
HETATM   28  O11 VIA  7634       0.049  36.198 228.832  1.00 20.00    -0.200 OA
HETATM   29  O12 VIA  7634      -2.009  35.196 228.338  1.00 20.00    -0.200 OA
BRANCH  27  30
HETATM   30  N14 VIA  7634      -1.847  37.629 228.600  1.00 20.00    -0.303 N 
HETATM   31  C15 VIA  7634      -1.204  38.851 228.998  1.00 20.00     0.165 C 
HETATM   32  C16 VIA  7634      -1.089  39.848 227.826  1.00 20.00     0.292 C 
HETATM   33  N17 VIA  7634      -2.410  40.148 227.300  1.00 20.00     0.087 N 
HETATM   34  C18 VIA  7634      -3.190  38.962 226.956  1.00 20.00     0.292 C 
HETATM   35  C20 VIA  7634      -2.403  41.185 226.292  1.00 20.00     0.310 C 
HETATM   36  C19 VIA  7634      -3.161  37.874 228.058  1.00 20.00     0.165 C 
ENDBRANCH  27  30
ENDBRANCH   3  27
TORSDOF 7
ENDMDL
MODEL 5
REMARK VINA RESULT:      -7.1      3.370      5.590
REMARK  7 active torsions:
REMARK  status: ('A' for Active; 'I' for Inactive)
REMARK    1  A    between atoms: C32_3  and  C33_2 
REMARK    2  A    between atoms: C30_4  and  C32_3 
REMARK    3  A    between atoms: C21_14  and  C9_18 
REMARK    4  A    between atoms: C7_20  and  S10_27 
REMARK    5  A    between atoms: C4_23  and  O3_24 
REMARK    6  A    between atoms: C2_25  and  O3_24 
REMARK    7  A    between atoms: N14_30  and  S10_27 
ROOT
HETATM    1  C9  VIA  7634       0.911  34.833 234.274  1.00 20.00     0.043 A 
HETATM    2  C8  VIA  7634       1.177  34.537 232.925  1.00 20.00     0.043 A 
HETATM    3  C7  VIA  7634       0.386  35.051 231.882  1.00 20.00     0.080 A 
HETATM    4  C6  VIA  7634      -0.672  35.861 232.249  1.00 20.00     0.028 A 
HETATM    5  C5  VIA  7634      -0.937  36.144 233.545  1.00 20.00     0.039 A 
HETATM    6  C4  VIA  7634      -0.138  35.626 234.595  1.00 20.00     0.082 A 
ENDROOT
BRANCH   1   7
HETATM    7  C21 VIA  7634       1.860  34.188 235.202  1.00 20.00     0.121 A 
HETATM    8  N22 VIA  7634       2.273  32.937 234.751  1.00 20.00    -0.307 N 
HETATM    9  C23 VIA  7634       3.182  32.144 235.457  1.00 20.00     0.277 A 
ATOM     10  H22 VIA  7634       1.897  32.586 233.870  1.00  0.00     0.170 HD
HETATM   11  O27 VIA  7634       3.513  31.047 235.012  1.00 20.00    -0.265 OA
HETATM   12  C24 VIA  7634       3.602  32.767 236.661  1.00 20.00     0.147 A 
HETATM   13  N28 VIA  7634       4.477  32.345 237.644  1.00 20.00    -0.289 N 
HETATM   14  C25 VIA  7634       3.123  34.038 237.041  1.00 20.00     0.092 A 
HETATM   15  C31 VIA  7634       5.203  31.090 237.669  1.00 20.00     0.178 C 
HETATM   16  N29 VIA  7634       4.554  33.296 238.599  1.00 20.00    -0.300 N 
HETATM   17  C30 VIA  7634       3.760  34.349 238.297  1.00 20.00     0.055 A 
ATOM     18  H29 VIA  7634       5.134  33.230 239.436  1.00  0.00     0.187 HD
HETATM   19  N26 VIA  7634       2.232  34.793 236.310  1.00 20.00    -0.338 N 
ATOM     20  H26 VIA  7634       1.899  35.714 236.595  1.00  0.00     0.167 HD
BRANCH  17  21
HETATM   21  C32 VIA  7634       3.603  35.549 239.109  1.00 20.00     0.061 C 
BRANCH  21  22
HETATM   22  C33 VIA  7634       4.607  36.670 238.633  1.00 20.00     0.002 C 
HETATM   23  C34 VIA  7634       4.081  37.628 237.588  1.00 20.00     0.005 C 
ENDBRANCH  21  22
ENDBRANCH  17  21
ENDBRANCH   1   7
BRANCH   6  24
HETATM   24  O3  VIA  7634      -0.315  35.847 235.880  1.00 20.00    -0.351 OA
BRANCH  24  25
HETATM   25  C2  VIA  7634      -0.784  37.162 236.346  1.00 20.00     0.171 C 
HETATM   26  C1  VIA  7634       0.384  37.822 236.982  1.00 20.00     0.034 C 
ENDBRANCH  24  25
ENDBRANCH   6  24
BRANCH   3  27
HETATM   27  S10 VIA  7634       0.726  34.687 230.227  1.00 20.00     0.261 S 
HETATM   28  O11 VIA  7634       1.928  35.189 229.817  1.00 20.00    -0.200 OA
HETATM   29  O12 VIA  7634       0.542  33.315 230.041  1.00 20.00    -0.200 OA
BRANCH  27  30
HETATM   30  N14 VIA  7634      -0.399  35.477 229.370  1.00 20.00    -0.303 N 
HETATM   31  C15 VIA  7634      -1.656  34.882 229.010  1.00 20.00     0.165 C 
HETATM   32  C16 VIA  7634      -2.834  35.856 229.222  1.00 20.00     0.292 C 
HETATM   33  N17 VIA  7634      -2.629  37.060 228.436  1.00 20.00     0.087 N 
HETATM   34  C18 VIA  7634      -1.330  37.692 228.655  1.00 20.00     0.292 C 
HETATM   35  C20 VIA  7634      -3.757  37.964 228.467  1.00 20.00     0.310 C 
HETATM   36  C19 VIA  7634      -0.151  36.687 228.624  1.00 20.00     0.165 C 
ENDBRANCH  27  30
ENDBRANCH   3  27
TORSDOF 7
ENDMDL
MODEL 6
REMARK VINA RESULT:      -6.9      2.321      8.014
REMARK  7 active torsions:
REMARK  status: ('A' for Active; 'I' for Inactive)
REMARK    1  A    between atoms: C32_3  and  C33_2 
REMARK    2  A    between atoms: C30_4  and  C32_3 
REMARK    3  A    between atoms: C21_14  and  C9_18 
REMARK    4  A    between atoms: C7_20  and  S10_27 
REMARK    5  A    between atoms: C4_23  and  O3_24 
REMARK    6  A    between atoms: C2_25  and  O3_24 
REMARK    7  A    between atoms: N14_30  and  S10_27 
ROOT
HETATM    1  C9  VIA  7634      -0.555  35.975 230.040  1.00 20.00     0.043 A 
HETATM    2  C8  VIA  7634      -0.977  36.015 231.380  1.00 20.00     0.043 A 
HETATM    3  C7  VIA  7634      -0.278  35.347 232.401  1.00 20.00     0.080 A 
HETATM    4  C6  VIA  7634       0.848  34.642 232.020  1.00 20.00     0.028 A 
HETATM    5  C5  VIA  7634       1.255  34.593 230.731  1.00 20.00     0.039 A 
HETATM    6  C4  VIA  7634       0.550  35.269 229.704  1.00 20.00     0.082 A 
ENDROOT
BRANCH   1   7
HETATM    7  C21 VIA  7634      -1.435  36.740 229.136  1.00 20.00     0.121 A 
HETATM    8  N22 VIA  7634      -2.592  36.041 228.807  1.00 20.00    -0.307 N 
HETATM    9  C23 VIA  7634      -3.582  36.571 227.975  1.00 20.00     0.277 A 
ATOM     10  H22 VIA  7634      -2.723  35.104 229.188  1.00  0.00     0.170 HD
HETATM   11  O27 VIA  7634      -4.586  35.910 227.717  1.00 20.00    -0.265 OA
HETATM   12  C24 VIA  7634      -3.247  37.873 227.520  1.00 20.00     0.147 A 
HETATM   13  N28 VIA  7634      -3.928  38.749 226.694  1.00 20.00    -0.289 N 
HETATM   14  C25 VIA  7634      -2.044  38.503 227.902  1.00 20.00     0.092 A 
HETATM   15  C31 VIA  7634      -5.212  38.516 226.064  1.00 20.00     0.178 C 
HETATM   16  N29 VIA  7634      -3.198  39.877 226.559  1.00 20.00    -0.300 N 
HETATM   17  C30 VIA  7634      -2.047  39.796 227.263  1.00 20.00     0.055 A 
ATOM     18  H29 VIA  7634      -3.478  40.683 225.999  1.00  0.00     0.187 HD
HETATM   19  N26 VIA  7634      -1.097  37.947 228.734  1.00 20.00    -0.338 N 
ATOM     20  H26 VIA  7634      -0.234  38.417 229.007  1.00  0.00     0.167 HD
BRANCH  17  21
HETATM   21  C32 VIA  7634      -1.027  40.834 227.339  1.00 20.00     0.061 C 
BRANCH  21  22
HETATM   22  C33 VIA  7634       0.136  40.538 226.312  1.00 20.00     0.002 C 
HETATM   23  C34 VIA  7634       1.542  40.746 226.827  1.00 20.00     0.005 C 
ENDBRANCH  21  22
ENDBRANCH  17  21
ENDBRANCH   1   7
BRANCH   6  24
HETATM   24  O3  VIA  7634       0.871  35.281 228.428  1.00 20.00    -0.351 OA
BRANCH  24  25
HETATM   25  C2  VIA  7634       2.249  35.592 228.015  1.00 20.00     0.171 C 
HETATM   26  C1  VIA  7634       2.167  36.801 227.158  1.00 20.00     0.034 C 
ENDBRANCH  24  25
ENDBRANCH   6  24
BRANCH   3  27
HETATM   27  S10 VIA  7634      -0.802  35.409 234.046  1.00 20.00     0.261 S 
HETATM   28  O11 VIA  7634      -1.605  36.485 234.299  1.00 20.00    -0.200 OA
HETATM   29  O12 VIA  7634      -1.334  34.160 234.377  1.00 20.00    -0.200 OA
BRANCH  27  30
HETATM   30  N14 VIA  7634       0.541  35.644 234.920  1.00 20.00    -0.303 N 
HETATM   31  C15 VIA  7634       1.424  36.756 234.698  1.00 20.00     0.165 C 
HETATM   32  C16 VIA  7634       1.871  37.408 236.022  1.00 20.00     0.292 C 
HETATM   33  N17 VIA  7634       2.537  36.425 236.859  1.00 20.00     0.087 N 
HETATM   34  C18 VIA  7634       1.760  35.205 237.067  1.00 20.00     0.292 C 
HETATM   35  C20 VIA  7634       3.113  36.990 238.059  1.00 20.00     0.310 C 
HETATM   36  C19 VIA  7634       1.152  34.641 235.758  1.00 20.00     0.165 C 
ENDBRANCH  27  30
ENDBRANCH   3  27
TORSDOF 7
ENDMDL
MODEL 7
REMARK VINA RESULT:      -6.9      2.118      8.029
REMARK  7 active torsions:
REMARK  status: ('A' for Active; 'I' for Inactive)
REMARK    1  A    between atoms: C32_3  and  C33_2 
REMARK    2  A    between atoms: C30_4  and  C32_3 
REMARK    3  A    between atoms: C21_14  and  C9_18 
REMARK    4  A    between atoms: C7_20  and  S10_27 
REMARK    5  A    between atoms: C4_23  and  O3_24 
REMARK    6  A    between atoms: C2_25  and  O3_24 
REMARK    7  A    between atoms: N14_30  and  S10_27 
ROOT
HETATM    1  C9  VIA  7634      -0.334  36.534 229.304  1.00 20.00     0.043 A 
HETATM    2  C8  VIA  7634      -0.876  36.589 230.601  1.00 20.00     0.043 A 
HETATM    3  C7  VIA  7634      -0.654  35.568 231.542  1.00 20.00     0.080 A 
HETATM    4  C6  VIA  7634       0.122  34.502 231.128  1.00 20.00     0.028 A 
HETATM    5  C5  VIA  7634       0.640  34.440 229.880  1.00 20.00     0.039 A 
HETATM    6  C4  VIA  7634       0.417  35.471 228.932  1.00 20.00     0.082 A 
ENDROOT
BRANCH   1   7
HETATM    7  C21 VIA  7634      -0.695  37.705 228.481  1.00 20.00     0.121 A 
HETATM    8  N22 VIA  7634      -2.065  37.792 228.256  1.00 20.00    -0.307 N 
HETATM    9  C23 VIA  7634      -2.643  38.826 227.515  1.00 20.00     0.277 A 
ATOM     10  H22 VIA  7634      -2.672  37.072 228.649  1.00  0.00     0.170 HD
HETATM   11  O27 VIA  7634      -3.860  38.855 227.347  1.00 20.00    -0.265 OA
HETATM   12  C24 VIA  7634      -1.668  39.737 227.031  1.00 20.00     0.147 A 
HETATM   13  N28 VIA  7634      -1.796  40.883 226.268  1.00 20.00    -0.289 N 
HETATM   14  C25 VIA  7634      -0.295  39.564 227.304  1.00 20.00     0.092 A 
HETATM   15  C31 VIA  7634      -3.031  41.441 225.754  1.00 20.00     0.178 C 
HETATM   16  N29 VIA  7634      -0.570  41.413 226.067  1.00 20.00    -0.300 N 
HETATM   17  C30 VIA  7634       0.384  40.665 226.667  1.00 20.00     0.055 A 
ATOM     18  H29 VIA  7634      -0.388  42.263 225.534  1.00  0.00     0.187 HD
HETATM   19  N26 VIA  7634       0.233  38.533 228.049  1.00 20.00    -0.338 N 
ATOM     20  H26 VIA  7634       1.229  38.424 228.244  1.00  0.00     0.167 HD
BRANCH  17  21
HETATM   21  C32 VIA  7634       1.813  40.948 226.651  1.00 20.00     0.061 C 
BRANCH  21  22
HETATM   22  C33 VIA  7634       2.100  42.368 227.281  1.00 20.00     0.002 C 
HETATM   23  C34 VIA  7634       3.122  42.404 228.393  1.00 20.00     0.005 C 
ENDBRANCH  21  22
ENDBRANCH  17  21
ENDBRANCH   1   7
BRANCH   6  24
HETATM   24  O3  VIA  7634       0.879  35.500 227.701  1.00 20.00    -0.351 OA
BRANCH  24  25
HETATM   25  C2  VIA  7634       2.290  35.179 227.434  1.00 20.00     0.171 C 
HETATM   26  C1  VIA  7634       2.303  33.839 226.798  1.00 20.00     0.034 C 
ENDBRANCH  24  25
ENDBRANCH   6  24
BRANCH   3  27
HETATM   27  S10 VIA  7634      -1.318  35.648 233.135  1.00 20.00     0.261 S 
HETATM   28  O11 VIA  7634      -1.876  36.864 233.408  1.00 20.00    -0.200 OA
HETATM   29  O12 VIA  7634      -2.152  34.541 233.311  1.00 20.00    -0.200 OA
BRANCH  27  30
HETATM   30  N14 VIA  7634      -0.055  35.506 234.139  1.00 20.00    -0.303 N 
HETATM   31  C15 VIA  7634       1.101  36.355 234.052  1.00 20.00     0.165 C 
HETATM   32  C16 VIA  7634       1.565  36.838 235.442  1.00 20.00     0.292 C 
HETATM   33  N17 VIA  7634       1.868  35.696 236.288  1.00 20.00     0.087 N 
HETATM   34  C18 VIA  7634       0.788  34.716 236.364  1.00 20.00     0.292 C 
HETATM   35  C20 VIA  7634       2.446  36.063 237.561  1.00 20.00     0.310 C 
HETATM   36  C19 VIA  7634       0.191  34.359 234.979  1.00 20.00     0.165 C 
ENDBRANCH  27  30
ENDBRANCH   3  27
TORSDOF 7
ENDMDL
MODEL 8
REMARK VINA RESULT:      -6.8      2.772      8.038
REMARK  7 active torsions:
REMARK  status: ('A' for Active; 'I' for Inactive)
REMARK    1  A    between atoms: C32_3  and  C33_2 
REMARK    2  A    between atoms: C30_4  and  C32_3 
REMARK    3  A    between atoms: C21_14  and  C9_18 
REMARK    4  A    between atoms: C7_20  and  S10_27 
REMARK    5  A    between atoms: C4_23  and  O3_24 
REMARK    6  A    between atoms: C2_25  and  O3_24 
REMARK    7  A    between atoms: N14_30  and  S10_27 
ROOT
HETATM    1  C9  VIA  7634      -1.952  36.531 230.246  1.00 20.00     0.043 A 
HETATM    2  C8  VIA  7634      -1.577  36.580 231.601  1.00 20.00     0.043 A 
HETATM    3  C7  VIA  7634      -2.206  35.784 232.575  1.00 20.00     0.080 A 
HETATM    4  C6  VIA  7634      -3.216  34.951 232.136  1.00 20.00     0.028 A 
HETATM    5  C5  VIA  7634      -3.585  34.904 230.835  1.00 20.00     0.039 A 
HETATM    6  C4  VIA  7634      -2.950  35.706 229.854  1.00 20.00     0.082 A 
ENDROOT
BRANCH   1   7
HETATM    7  C21 VIA  7634      -1.167  37.450 229.399  1.00 20.00     0.121 A 
HETATM    8  N22 VIA  7634      -1.633  38.759 229.466  1.00 20.00    -0.307 N 
HETATM    9  C23 VIA  7634      -1.038  39.808 228.759  1.00 20.00     0.277 A 
ATOM     10  H22 VIA  7634      -2.442  38.962 230.054  1.00  0.00     0.170 HD
HETATM   11  O27 VIA  7634      -1.491  40.947 228.854  1.00 20.00    -0.265 OA
HETATM   12  C24 VIA  7634       0.063  39.363 227.982  1.00 20.00     0.147 A 
HETATM   13  N28 VIA  7634       0.922  40.052 227.146  1.00 20.00    -0.289 N 
HETATM   14  C25 VIA  7634       0.461  38.009 227.972  1.00 20.00     0.092 A 
HETATM   15  C31 VIA  7634       0.882  41.471 226.852  1.00 20.00     0.178 C 
HETATM   16  N29 VIA  7634       1.820  39.185 226.631  1.00 20.00    -0.300 N 
HETATM   17  C30 VIA  7634       1.599  37.932 227.090  1.00 20.00     0.055 A 
ATOM     18  H29 VIA  7634       2.565  39.441 225.984  1.00  0.00     0.187 HD
HETATM   19  N26 VIA  7634      -0.149  37.006 228.693  1.00 20.00    -0.338 N 
ATOM     20  H26 VIA  7634       0.154  36.032 228.680  1.00  0.00     0.167 HD
BRANCH  17  21
HETATM   21  C32 VIA  7634       2.381  36.753 226.737  1.00 20.00     0.061 C 
BRANCH  21  22
HETATM   22  C33 VIA  7634       2.433  35.745 227.951  1.00 20.00     0.002 C 
HETATM   23  C34 VIA  7634       2.297  34.281 227.601  1.00 20.00     0.005 C 
ENDBRANCH  21  22
ENDBRANCH  17  21
ENDBRANCH   1   7
BRANCH   6  24
HETATM   24  O3  VIA  7634      -3.238  35.726 228.570  1.00 20.00    -0.351 OA
BRANCH  24  25
HETATM   25  C2  VIA  7634      -4.119  34.698 227.994  1.00 20.00     0.171 C 
HETATM   26  C1  VIA  7634      -4.655  35.264 226.732  1.00 20.00     0.034 C 
ENDBRANCH  24  25
ENDBRANCH   6  24
BRANCH   3  27
HETATM   27  S10 VIA  7634      -1.733  35.848 234.236  1.00 20.00     0.261 S 
HETATM   28  O11 VIA  7634      -1.483  37.122 234.661  1.00 20.00    -0.200 OA
HETATM   29  O12 VIA  7634      -2.673  35.130 234.980  1.00 20.00    -0.200 OA
BRANCH  27  30
HETATM   30  N14 VIA  7634      -0.314  35.070 234.313  1.00 20.00    -0.303 N 
HETATM   31  C15 VIA  7634       0.940  35.721 234.050  1.00 20.00     0.165 C 
HETATM   32  C16 VIA  7634       2.017  35.330 235.082  1.00 20.00     0.292 C 
HETATM   33  N17 VIA  7634       2.211  33.890 235.075  1.00 20.00     0.087 N 
HETATM   34  C18 VIA  7634       0.975  33.128 235.236  1.00 20.00     0.292 C 
HETATM   35  C20 VIA  7634       3.306  33.455 235.913  1.00 20.00     0.310 C 
HETATM   36  C19 VIA  7634      -0.174  33.634 234.328  1.00 20.00     0.165 C 
ENDBRANCH  27  30
ENDBRANCH   3  27
TORSDOF 7
ENDMDL
MODEL 9
REMARK VINA RESULT:      -6.7      3.509      5.419
REMARK  7 active torsions:
REMARK  status: ('A' for Active; 'I' for Inactive)
REMARK    1  A    between atoms: C32_3  and  C33_2 
REMARK    2  A    between atoms: C30_4  and  C32_3 
REMARK    3  A    between atoms: C21_14  and  C9_18 
REMARK    4  A    between atoms: C7_20  and  S10_27 
REMARK    5  A    between atoms: C4_23  and  O3_24 
REMARK    6  A    between atoms: C2_25  and  O3_24 
REMARK    7  A    between atoms: N14_30  and  S10_27 
ROOT
HETATM    1  C9  VIA  7634       1.175  33.061 233.838  1.00 20.00     0.043 A 
HETATM    2  C8  VIA  7634       1.237  33.799 232.643  1.00 20.00     0.043 A 
HETATM    3  C7  VIA  7634       0.767  33.280 231.423  1.00 20.00     0.080 A 
HETATM    4  C6  VIA  7634       0.243  32.003 231.455  1.00 20.00     0.028 A 
HETATM    5  C5  VIA  7634       0.187  31.284 232.600  1.00 20.00     0.039 A 
HETATM    6  C4  VIA  7634       0.659  31.809 233.830  1.00 20.00     0.082 A 
ENDROOT
BRANCH   1   7
HETATM    7  C21 VIA  7634       1.725  33.792 234.995  1.00 20.00     0.121 A 
HETATM    8  N22 VIA  7634       2.695  33.059 235.672  1.00 20.00    -0.307 N 
HETATM    9  C23 VIA  7634       3.368  33.553 236.793  1.00 20.00     0.277 A 
ATOM     10  H22 VIA  7634       2.924  32.124 235.337  1.00  0.00     0.170 HD
HETATM   11  O27 VIA  7634       4.216  32.863 237.354  1.00 20.00    -0.265 OA
HETATM   12  C24 VIA  7634       2.930  34.859 237.139  1.00 20.00     0.147 A 
HETATM   13  N28 VIA  7634       3.319  35.707 238.159  1.00 20.00    -0.289 N 
HETATM   14  C25 VIA  7634       1.932  35.524 236.395  1.00 20.00     0.092 A 
HETATM   15  C31 VIA  7634       4.320  35.433 239.171  1.00 20.00     0.178 C 
HETATM   16  N29 VIA  7634       2.610  36.852 238.069  1.00 20.00    -0.300 N 
HETATM   17  C30 VIA  7634       1.752  36.809 237.024  1.00 20.00     0.055 A 
ATOM     18  H29 VIA  7634       2.707  37.644 238.705  1.00  0.00     0.187 HD
HETATM   19  N26 VIA  7634       1.300  35.003 235.288  1.00 20.00    -0.338 N 
ATOM     20  H26 VIA  7634       0.584  35.499 234.756  1.00  0.00     0.167 HD
BRANCH  17  21
HETATM   21  C32 VIA  7634       0.836  37.875 236.638  1.00 20.00     0.061 C 
BRANCH  21  22
HETATM   22  C33 VIA  7634      -0.655  37.458 236.949  1.00 20.00     0.002 C 
HETATM   23  C34 VIA  7634      -1.654  38.588 237.034  1.00 20.00     0.005 C 
ENDBRANCH  21  22
ENDBRANCH  17  21
ENDBRANCH   1   7
BRANCH   6  24
HETATM   24  O3  VIA  7634       0.644  31.189 234.989  1.00 20.00    -0.351 OA
BRANCH  24  25
HETATM   25  C2  VIA  7634      -0.617  30.645 235.519  1.00 20.00     0.171 C 
HETATM   26  C1  VIA  7634      -1.331  31.781 236.152  1.00 20.00     0.034 C 
ENDBRANCH  24  25
ENDBRANCH   6  24
BRANCH   3  27
HETATM   27  S10 VIA  7634       0.843  34.200 229.962  1.00 20.00     0.261 S 
HETATM   28  O11 VIA  7634       1.768  35.202 230.021  1.00 20.00    -0.200 OA
HETATM   29  O12 VIA  7634       0.980  33.306 228.897  1.00 20.00    -0.200 OA
BRANCH  27  30
HETATM   30  N14 VIA  7634      -0.596  34.932 229.836  1.00 20.00    -0.303 N 
HETATM   31  C15 VIA  7634      -1.014  35.975 230.733  1.00 20.00     0.165 C 
HETATM   32  C16 VIA  7634      -1.681  37.145 229.981  1.00 20.00     0.292 C 
HETATM   33  N17 VIA  7634      -2.830  36.664 229.234  1.00 20.00     0.087 N 
HETATM   34  C18 VIA  7634      -2.532  35.531 228.361  1.00 20.00     0.292 C 
HETATM   35  C20 VIA  7634      -3.596  37.723 228.616  1.00 20.00     0.310 C 
HETATM   36  C19 VIA  7634      -1.702  34.426 229.060  1.00 20.00     0.165 C 
ENDBRANCH  27  30
ENDBRANCH   3  27
TORSDOF 7
ENDMDL
