MODEL 1
REMARK VINA RESULT:      -8.1      0.000      0.000
REMARK  7 active torsions:
REMARK  status: ('A' for Active; 'I' for Inactive)
REMARK    1  A    between atoms: C2_6  and  C21_2 
REMARK       I    between atoms: C21_2  and  N2_3 
REMARK    2  A    between atoms: C3_9  and  O2_10 
REMARK    3  A    between atoms: C4_12  and  N1_13 
REMARK    4  A    between atoms: C18_17  and  O7_18 
REMARK    5  A    between atoms: C17_20  and  O6_21 
REMARK    6  A    between atoms: C13_31  and  O4_32 
REMARK    7  A    between atoms: C10_36  and  N7_37 
ROOT
HETATM    1  C2  MIY  5181       2.738  36.131 237.452  1.00 20.00     0.116 C 
HETATM    2  C1  MIY  5181       1.691  36.662 236.548  1.00 20.00     0.209 C 
HETATM    3  O1  MIY  5181       1.686  37.848 236.286  1.00 20.00    -0.288 OA
HETATM    4  C3  MIY  5181       2.801  34.781 237.654  1.00 20.00     0.108 C 
HETATM    5  C4  MIY  5181       1.955  33.726 236.873  1.00 20.00     0.049 C 
HETATM    6  C5  MIY  5181       1.095  34.307 235.700  1.00 20.00     0.088 C 
HETATM    7  C18 MIY  5181       0.583  35.726 236.002  1.00 20.00     0.180 C 
HETATM    8  C17 MIY  5181      -0.259  36.164 234.785  1.00 20.00     0.097 C 
HETATM    9  C16 MIY  5181      -0.248  35.625 233.543  1.00 20.00     0.030 C 
HETATM   10  C7  MIY  5181       0.612  34.446 233.176  1.00 20.00     0.030 C 
HETATM   11  C6  MIY  5181       1.673  34.181 234.271  1.00 20.00     0.024 C 
HETATM   12  C15 MIY  5181      -1.108  36.250 232.515  1.00 20.00     0.194 C 
HETATM   13  O5  MIY  5181      -1.967  37.115 232.743  1.00 20.00    -0.287 OA
HETATM   14  C14 MIY  5181      -0.870  35.930 231.089  1.00 20.00     0.056 A 
HETATM   15  C9  MIY  5181       0.282  35.238 230.726  1.00 20.00    -0.019 A 
HETATM   16  C8  MIY  5181       1.269  34.773 231.813  1.00 20.00     0.051 C 
HETATM   17  C13 MIY  5181      -1.808  36.392 230.172  1.00 20.00     0.080 A 
HETATM   18  C12 MIY  5181      -1.609  36.150 228.815  1.00 20.00     0.039 A 
HETATM   19  C11 MIY  5181      -0.461  35.461 228.423  1.00 20.00     0.027 A 
HETATM   20  C10 MIY  5181       0.481  35.004 229.358  1.00 20.00     0.017 A 
ENDROOT
BRANCH   1  21
HETATM   21  C21 MIY  5181       3.696  37.075 238.106  1.00 20.00     0.256 C 
HETATM   22  N2  MIY  5181       4.594  37.646 237.272  1.00 20.00    -0.366 N 
ATOM     23  H22 MIY  5181       4.633  37.443 236.272  1.00  0.00     0.159 HD
ATOM     24  H21 MIY  5181       5.247  38.289 237.718  1.00  0.00     0.159 HD
HETATM   25  O8  MIY  5181       3.648  37.321 239.321  1.00 20.00    -0.268 OA
ENDBRANCH   1  21
BRANCH   4  26
HETATM   26  O2  MIY  5181       3.664  34.322 238.578  1.00 20.00    -0.358 OA
ATOM     27  H2  MIY  5181       3.637  33.397 238.793  1.00  0.00     0.218 HD
ENDBRANCH   4  26
BRANCH   7  28
HETATM   28  O7  MIY  5181      -0.393  35.626 237.049  1.00 20.00    -0.374 OA
ATOM     29  H7  MIY  5181      -0.752  36.499 237.151  1.00  0.00     0.211 HD
ENDBRANCH   7  28
BRANCH   5  30
HETATM   30  N1  MIY  5181       1.252  32.680 237.790  1.00 20.00    -0.390 N 
HETATM   31  C19 MIY  5181      -0.175  32.345 237.538  1.00 20.00     0.149 C 
HETATM   32  C20 MIY  5181       1.990  31.408 238.093  1.00 20.00     0.149 C 
ENDBRANCH   5  30
BRANCH   8  33
HETATM   33  O6  MIY  5181      -1.172  37.126 234.996  1.00 20.00    -0.361 OA
ATOM     34  H6  MIY  5181      -2.040  36.826 235.241  1.00  0.00     0.217 HD
ENDBRANCH   8  33
BRANCH  17  35
HETATM   35  O4  MIY  5181      -2.921  37.068 230.630  1.00 20.00    -0.360 OA
ATOM     36  H4  MIY  5181      -3.621  37.328 230.042  1.00  0.00     0.217 HD
ENDBRANCH  17  35
BRANCH  20  37
HETATM   37  N7  MIY  5181       1.628  34.371 228.891  1.00 20.00    -0.291 NA
HETATM   38  C71 MIY  5181       1.297  33.269 227.964  1.00 20.00     0.116 C 
HETATM   39  CN7 MIY  5181       2.272  35.413 228.081  1.00 20.00     0.116 C 
ENDBRANCH  20  37
TORSDOF 7
ENDMDL
MODEL 2
REMARK VINA RESULT:      -7.4      6.365      9.121
REMARK  7 active torsions:
REMARK  status: ('A' for Active; 'I' for Inactive)
REMARK    1  A    between atoms: C2_6  and  C21_2 
REMARK       I    between atoms: C21_2  and  N2_3 
REMARK    2  A    between atoms: C3_9  and  O2_10 
REMARK    3  A    between atoms: C4_12  and  N1_13 
REMARK    4  A    between atoms: C18_17  and  O7_18 
REMARK    5  A    between atoms: C17_20  and  O6_21 
REMARK    6  A    between atoms: C13_31  and  O4_32 
REMARK    7  A    between atoms: C10_36  and  N7_37 
ROOT
HETATM    1  C2  MIY  5181      -1.369  40.682 226.462  1.00 20.00     0.116 C 
HETATM    2  C1  MIY  5181      -1.827  39.519 227.256  1.00 20.00     0.209 C 
HETATM    3  O1  MIY  5181      -2.928  39.054 227.038  1.00 20.00    -0.288 OA
HETATM    4  C3  MIY  5181      -0.090  41.130 226.639  1.00 20.00     0.108 C 
HETATM    5  C4  MIY  5181       0.993  40.404 227.500  1.00 20.00     0.049 C 
HETATM    6  C5  MIY  5181       0.562  39.007 228.062  1.00 20.00     0.088 C 
HETATM    7  C18 MIY  5181      -0.939  38.951 228.392  1.00 20.00     0.180 C 
HETATM    8  C17 MIY  5181      -1.220  37.540 228.951  1.00 20.00     0.097 C 
HETATM    9  C16 MIY  5181      -0.443  36.438 228.823  1.00 20.00     0.030 C 
HETATM   10  C7  MIY  5181       0.879  36.454 228.106  1.00 20.00     0.030 C 
HETATM   11  C6  MIY  5181       1.042  37.757 227.288  1.00 20.00     0.024 C 
HETATM   12  C15 MIY  5181      -0.946  35.172 229.401  1.00 20.00     0.194 C 
HETATM   13  O5  MIY  5181      -1.935  35.078 230.143  1.00 20.00    -0.287 OA
HETATM   14  C14 MIY  5181      -0.318  33.896 228.990  1.00 20.00     0.056 A 
HETATM   15  C9  MIY  5181       0.565  33.884 227.914  1.00 20.00    -0.019 A 
HETATM   16  C8  MIY  5181       0.915  35.202 227.197  1.00 20.00     0.051 C 
HETATM   17  C13 MIY  5181      -0.694  32.753 229.687  1.00 20.00     0.080 A 
HETATM   18  C12 MIY  5181      -0.161  31.522 229.312  1.00 20.00     0.039 A 
HETATM   19  C11 MIY  5181       0.724  31.480 228.235  1.00 20.00     0.027 A 
HETATM   20  C10 MIY  5181       1.093  32.641 227.536  1.00 20.00     0.017 A 
ENDROOT
BRANCH   1  21
HETATM   21  C21 MIY  5181      -2.304  41.325 225.488  1.00 20.00     0.256 C 
HETATM   22  N2  MIY  5181      -2.058  41.043 224.189  1.00 20.00    -0.366 N 
ATOM     23  H22 MIY  5181      -1.286  40.449 223.885  1.00  0.00     0.159 HD
ATOM     24  H21 MIY  5181      -2.696  41.482 223.525  1.00  0.00     0.159 HD
HETATM   25  O8  MIY  5181      -3.243  42.048 225.859  1.00 20.00    -0.268 OA
ENDBRANCH   1  21
BRANCH   4  26
HETATM   26  O2  MIY  5181       0.272  42.265 226.016  1.00 20.00    -0.358 OA
ATOM     27  H2  MIY  5181       0.190  43.081 226.495  1.00  0.00     0.218 HD
ENDBRANCH   4  26
BRANCH   7  28
HETATM   28  O7  MIY  5181      -1.170  39.797 229.528  1.00 20.00    -0.374 OA
ATOM     29  H7  MIY  5181      -0.913  39.287 230.286  1.00  0.00     0.211 HD
ENDBRANCH   7  28
BRANCH   5  30
HETATM   30  N1  MIY  5181       1.740  41.345 228.493  1.00 20.00    -0.390 N 
HETATM   31  C19 MIY  5181       3.026  41.961 228.073  1.00 20.00     0.149 C 
HETATM   32  C20 MIY  5181       0.931  42.384 229.214  1.00 20.00     0.149 C 
ENDBRANCH   5  30
BRANCH   8  33
HETATM   33  O6  MIY  5181      -2.307  37.402 229.728  1.00 20.00    -0.361 OA
ATOM     34  H6  MIY  5181      -2.150  37.421 230.666  1.00  0.00     0.217 HD
ENDBRANCH   8  33
BRANCH  17  35
HETATM   35  O4  MIY  5181      -1.577  32.867 230.742  1.00 20.00    -0.360 OA
ATOM     36  H4  MIY  5181      -1.987  33.696 230.960  1.00  0.00     0.217 HD
ENDBRANCH  17  35
BRANCH  20  37
HETATM   37  N7  MIY  5181       1.938  32.517 226.440  1.00 20.00    -0.291 NA
HETATM   38  C71 MIY  5181       2.879  31.389 226.609  1.00 20.00     0.116 C 
HETATM   39  CN7 MIY  5181       1.022  32.131 225.359  1.00 20.00     0.116 C 
ENDBRANCH  20  37
TORSDOF 7
ENDMDL
MODEL 3
REMARK VINA RESULT:      -7.4      0.922      0.952
REMARK  7 active torsions:
REMARK  status: ('A' for Active; 'I' for Inactive)
REMARK    1  A    between atoms: C2_6  and  C21_2 
REMARK       I    between atoms: C21_2  and  N2_3 
REMARK    2  A    between atoms: C3_9  and  O2_10 
REMARK    3  A    between atoms: C4_12  and  N1_13 
REMARK    4  A    between atoms: C18_17  and  O7_18 
REMARK    5  A    between atoms: C17_20  and  O6_21 
REMARK    6  A    between atoms: C13_31  and  O4_32 
REMARK    7  A    between atoms: C10_36  and  N7_37 
ROOT
HETATM    1  C2  MIY  5181       3.045  35.797 237.672  1.00 20.00     0.116 C 
HETATM    2  C1  MIY  5181       1.870  36.297 236.922  1.00 20.00     0.209 C 
HETATM    3  O1  MIY  5181       1.706  37.496 236.815  1.00 20.00    -0.288 OA
HETATM    4  C3  MIY  5181       3.280  34.450 237.695  1.00 20.00     0.108 C 
HETATM    5  C4  MIY  5181       2.496  33.399 236.847  1.00 20.00     0.049 C 
HETATM    6  C5  MIY  5181       1.476  34.003 235.824  1.00 20.00     0.088 C 
HETATM    7  C18 MIY  5181       0.833  35.302 236.341  1.00 20.00     0.180 C 
HETATM    8  C17 MIY  5181      -0.156  35.773 235.255  1.00 20.00     0.097 C 
HETATM    9  C16 MIY  5181      -0.191  35.391 233.956  1.00 20.00     0.030 C 
HETATM   10  C7  MIY  5181       0.763  34.380 233.380  1.00 20.00     0.030 C 
HETATM   11  C6  MIY  5181       1.938  34.121 234.353  1.00 20.00     0.024 C 
HETATM   12  C15 MIY  5181      -1.203  36.022 233.081  1.00 20.00     0.194 C 
HETATM   13  O5  MIY  5181      -2.132  36.740 233.479  1.00 20.00    -0.287 OA
HETATM   14  C14 MIY  5181      -1.055  35.905 231.612  1.00 20.00     0.056 A 
HETATM   15  C9  MIY  5181       0.133  35.410 231.081  1.00 20.00    -0.019 A 
HETATM   16  C8  MIY  5181       1.257  34.946 232.027  1.00 20.00     0.051 C 
HETATM   17  C13 MIY  5181      -2.116  36.353 230.833  1.00 20.00     0.080 A 
HETATM   18  C12 MIY  5181      -2.009  36.300 229.445  1.00 20.00     0.039 A 
HETATM   19  C11 MIY  5181      -0.828  35.811 228.886  1.00 20.00     0.027 A 
HETATM   20  C10 MIY  5181       0.238  35.367 229.685  1.00 20.00     0.017 A 
ENDROOT
BRANCH   1  21
HETATM   21  C21 MIY  5181       3.942  36.768 238.372  1.00 20.00     0.256 C 
HETATM   22  N2  MIY  5181       3.520  37.154 239.597  1.00 20.00    -0.366 N 
ATOM     23  H22 MIY  5181       2.649  36.826 240.015  1.00  0.00     0.159 HD
ATOM     24  H21 MIY  5181       4.131  37.816 240.073  1.00  0.00     0.159 HD
HETATM   25  O8  MIY  5181       5.001  37.168 237.863  1.00 20.00    -0.268 OA
ENDBRANCH   1  21
BRANCH   4  26
HETATM   26  O2  MIY  5181       4.267  33.997 238.488  1.00 20.00    -0.358 OA
ATOM     27  H2  MIY  5181       4.196  34.156 239.422  1.00  0.00     0.218 HD
ENDBRANCH   4  26
BRANCH   7  28
HETATM   28  O7  MIY  5181      -0.031  34.957 237.434  1.00 20.00    -0.374 OA
ATOM     29  H7  MIY  5181      -0.788  34.540 237.042  1.00  0.00     0.211 HD
ENDBRANCH   7  28
BRANCH   5  30
HETATM   30  N1  MIY  5181       1.999  32.172 237.671  1.00 20.00    -0.390 N 
HETATM   31  C19 MIY  5181       1.500  32.388 239.054  1.00 20.00     0.149 C 
HETATM   32  C20 MIY  5181       1.088  31.194 236.987  1.00 20.00     0.149 C 
ENDBRANCH   5  30
BRANCH   8  33
HETATM   33  O6  MIY  5181      -1.152  36.582 235.653  1.00 20.00    -0.361 OA
ATOM     34  H6  MIY  5181      -1.094  36.900 236.546  1.00  0.00     0.217 HD
ENDBRANCH   8  33
BRANCH  17  35
HETATM   35  O4  MIY  5181      -3.255  36.826 231.452  1.00 20.00    -0.360 OA
ATOM     36  H4  MIY  5181      -3.616  36.400 232.221  1.00  0.00     0.217 HD
ENDBRANCH  17  35
BRANCH  20  37
HETATM   37  N7  MIY  5181       1.405  34.942 229.059  1.00 20.00    -0.291 NA
HETATM   38  C71 MIY  5181       1.218  33.632 228.401  1.00 20.00     0.116 C 
HETATM   39  CN7 MIY  5181       1.578  35.925 227.982  1.00 20.00     0.116 C 
ENDBRANCH  20  37
TORSDOF 7
ENDMDL
MODEL 4
REMARK VINA RESULT:      -7.2      2.323      7.954
REMARK  7 active torsions:
REMARK  status: ('A' for Active; 'I' for Inactive)
REMARK    1  A    between atoms: C2_6  and  C21_2 
REMARK       I    between atoms: C21_2  and  N2_3 
REMARK    2  A    between atoms: C3_9  and  O2_10 
REMARK    3  A    between atoms: C4_12  and  N1_13 
REMARK    4  A    between atoms: C18_17  and  O7_18 
REMARK    5  A    between atoms: C17_20  and  O6_21 
REMARK    6  A    between atoms: C13_31  and  O4_32 
REMARK    7  A    between atoms: C10_36  and  N7_37 
ROOT
HETATM    1  C2  MIY  5181      -1.943  34.760 233.450  1.00 20.00     0.116 C 
HETATM    2  C1  MIY  5181      -1.097  35.650 234.278  1.00 20.00     0.209 C 
HETATM    3  O1  MIY  5181      -1.626  36.355 235.115  1.00 20.00    -0.288 OA
HETATM    4  C3  MIY  5181      -1.330  33.893 232.589  1.00 20.00     0.108 C 
HETATM    5  C4  MIY  5181       0.211  33.645 232.527  1.00 20.00     0.049 C 
HETATM    6  C5  MIY  5181       1.041  34.368 233.641  1.00 20.00     0.088 C 
HETATM    7  C18 MIY  5181       0.432  35.725 234.033  1.00 20.00     0.180 C 
HETATM    8  C17 MIY  5181       1.352  36.332 235.112  1.00 20.00     0.097 C 
HETATM    9  C16 MIY  5181       2.271  35.682 235.865  1.00 20.00     0.030 C 
HETATM   10  C7  MIY  5181       2.550  34.211 235.719  1.00 20.00     0.030 C 
HETATM   11  C6  MIY  5181       1.449  33.528 234.873  1.00 20.00     0.024 C 
HETATM   12  C15 MIY  5181       3.004  36.468 236.883  1.00 20.00     0.194 C 
HETATM   13  O5  MIY  5181       2.971  37.703 236.980  1.00 20.00    -0.287 OA
HETATM   14  C14 MIY  5181       3.744  35.751 237.946  1.00 20.00     0.056 A 
HETATM   15  C9  MIY  5181       3.555  34.381 238.107  1.00 20.00    -0.019 A 
HETATM   16  C8  MIY  5181       2.619  33.621 237.148  1.00 20.00     0.051 C 
HETATM   17  C13 MIY  5181       4.564  36.514 238.771  1.00 20.00     0.080 A 
HETATM   18  C12 MIY  5181       5.250  35.892 239.811  1.00 20.00     0.039 A 
HETATM   19  C11 MIY  5181       5.077  34.521 239.996  1.00 20.00     0.027 A 
HETATM   20  C10 MIY  5181       4.243  33.762 239.160  1.00 20.00     0.017 A 
ENDROOT
BRANCH   1  21
HETATM   21  C21 MIY  5181      -3.431  34.825 233.581  1.00 20.00     0.256 C 
HETATM   22  N2  MIY  5181      -3.932  34.237 234.691  1.00 20.00    -0.366 N 
ATOM     23  H22 MIY  5181      -3.349  33.769 235.385  1.00  0.00     0.159 HD
ATOM     24  H21 MIY  5181      -4.947  34.281 234.781  1.00  0.00     0.159 HD
HETATM   25  O8  MIY  5181      -4.141  35.394 232.737  1.00 20.00    -0.268 OA
ENDBRANCH   1  21
BRANCH   4  26
HETATM   26  O2  MIY  5181      -2.107  33.189 231.746  1.00 20.00    -0.358 OA
ATOM     27  H2  MIY  5181      -1.807  32.327 231.480  1.00  0.00     0.218 HD
ENDBRANCH   4  26
BRANCH   7  28
HETATM   28  O7  MIY  5181       0.604  36.619 232.924  1.00 20.00    -0.374 OA
ATOM     29  H7  MIY  5181       0.267  36.157 232.165  1.00  0.00     0.211 HD
ENDBRANCH   7  28
BRANCH   5  30
HETATM   30  N1  MIY  5181       0.798  33.701 231.085  1.00 20.00    -0.390 N 
HETATM   31  C19 MIY  5181       0.737  32.484 230.233  1.00 20.00     0.149 C 
HETATM   32  C20 MIY  5181       0.452  34.890 230.235  1.00 20.00     0.149 C 
ENDBRANCH   5  30
BRANCH   8  33
HETATM   33  O6  MIY  5181       1.309  37.666 235.264  1.00 20.00    -0.361 OA
ATOM     34  H6  MIY  5181       0.729  37.985 235.946  1.00  0.00     0.217 HD
ENDBRANCH   8  33
BRANCH  17  35
HETATM   35  O4  MIY  5181       4.688  37.868 238.531  1.00 20.00    -0.360 OA
ATOM     36  H4  MIY  5181       4.421  38.253 237.704  1.00  0.00     0.217 HD
ENDBRANCH  17  35
BRANCH  20  37
HETATM   37  N7  MIY  5181       4.077  32.409 239.437  1.00 20.00    -0.291 NA
HETATM   38  C71 MIY  5181       5.211  31.611 238.928  1.00 20.00     0.116 C 
HETATM   39  CN7 MIY  5181       4.162  32.361 240.903  1.00 20.00     0.116 C 
ENDBRANCH  20  37
TORSDOF 7
ENDMDL
MODEL 5
REMARK VINA RESULT:      -6.6      2.744      7.922
REMARK  7 active torsions:
REMARK  status: ('A' for Active; 'I' for Inactive)
REMARK    1  A    between atoms: C2_6  and  C21_2 
REMARK       I    between atoms: C21_2  and  N2_3 
REMARK    2  A    between atoms: C3_9  and  O2_10 
REMARK    3  A    between atoms: C4_12  and  N1_13 
REMARK    4  A    between atoms: C18_17  and  O7_18 
REMARK    5  A    between atoms: C17_20  and  O6_21 
REMARK    6  A    between atoms: C13_31  and  O4_32 
REMARK    7  A    between atoms: C10_36  and  N7_37 
ROOT
HETATM    1  C2  MIY  5181      -1.063  31.881 229.761  1.00 20.00     0.116 C 
HETATM    2  C1  MIY  5181      -1.566  32.868 230.744  1.00 20.00     0.209 C 
HETATM    3  O1  MIY  5181      -2.464  32.544 231.496  1.00 20.00    -0.288 OA
HETATM    4  C3  MIY  5181       0.018  32.217 228.994  1.00 20.00     0.108 C 
HETATM    5  C4  MIY  5181       0.877  33.507 229.189  1.00 20.00     0.049 C 
HETATM    6  C5  MIY  5181       0.506  34.364 230.447  1.00 20.00     0.088 C 
HETATM    7  C18 MIY  5181      -0.998  34.310 230.764  1.00 20.00     0.180 C 
HETATM    8  C17 MIY  5181      -1.225  35.205 232.001  1.00 20.00     0.097 C 
HETATM    9  C16 MIY  5181      -0.292  35.637 232.882  1.00 20.00     0.030 C 
HETATM   10  C7  MIY  5181       1.170  35.307 232.747  1.00 20.00     0.030 C 
HETATM   11  C6  MIY  5181       1.381  34.180 231.708  1.00 20.00     0.024 C 
HETATM   12  C15 MIY  5181      -0.755  36.448 234.030  1.00 20.00     0.194 C 
HETATM   13  O5  MIY  5181      -1.899  36.910 234.153  1.00 20.00    -0.287 OA
HETATM   14  C14 MIY  5181       0.151  36.640 235.185  1.00 20.00     0.056 A 
HETATM   15  C9  MIY  5181       1.315  35.882 235.275  1.00 20.00    -0.019 A 
HETATM   16  C8  MIY  5181       1.669  34.890 234.151  1.00 20.00     0.051 C 
HETATM   17  C13 MIY  5181      -0.248  37.552 236.156  1.00 20.00     0.080 A 
HETATM   18  C12 MIY  5181       0.552  37.739 237.281  1.00 20.00     0.039 A 
HETATM   19  C11 MIY  5181       1.723  36.990 237.399  1.00 20.00     0.027 A 
HETATM   20  C10 MIY  5181       2.112  36.069 236.413  1.00 20.00     0.017 A 
ENDROOT
BRANCH   1  21
HETATM   21  C21 MIY  5181      -1.737  30.552 229.638  1.00 20.00     0.256 C 
HETATM   22  N2  MIY  5181      -1.619  29.751 230.721  1.00 20.00    -0.366 N 
ATOM     23  H22 MIY  5181      -1.099  30.018 231.558  1.00  0.00     0.159 HD
ATOM     24  H21 MIY  5181      -2.078  28.844 230.638  1.00  0.00     0.159 HD
HETATM   25  O8  MIY  5181      -2.369  30.227 228.621  1.00 20.00    -0.268 OA
ENDBRANCH   1  21
BRANCH   4  26
HETATM   26  O2  MIY  5181       0.381  31.372 228.013  1.00 20.00    -0.358 OA
ATOM     27  H2  MIY  5181      -0.237  31.214 227.310  1.00  0.00     0.218 HD
ENDBRANCH   4  26
BRANCH   7  28
HETATM   28  O7  MIY  5181      -1.691  35.016 229.725  1.00 20.00    -0.374 OA
ATOM     29  H7  MIY  5181      -2.608  34.793 229.829  1.00  0.00     0.211 HD
ENDBRANCH   7  28
BRANCH   5  30
HETATM   30  N1  MIY  5181       1.133  34.297 227.870  1.00 20.00    -0.390 N 
HETATM   31  C19 MIY  5181       1.040  35.780 227.888  1.00 20.00     0.149 C 
HETATM   32  C20 MIY  5181       2.324  33.908 227.043  1.00 20.00     0.149 C 
ENDBRANCH   5  30
BRANCH   8  33
HETATM   33  O6  MIY  5181      -2.465  35.689 232.178  1.00 20.00    -0.361 OA
ATOM     34  H6  MIY  5181      -2.626  36.118 233.011  1.00  0.00     0.217 HD
ENDBRANCH   8  33
BRANCH  17  35
HETATM   35  O4  MIY  5181      -1.419  38.259 235.977  1.00 20.00    -0.360 OA
ATOM     36  H4  MIY  5181      -1.944  38.160 235.191  1.00  0.00     0.217 HD
ENDBRANCH  17  35
BRANCH  20  37
HETATM   37  N7  MIY  5181       3.263  35.319 236.622  1.00 20.00    -0.291 NA
HETATM   38  C71 MIY  5181       4.333  36.132 237.236  1.00 20.00     0.116 C 
HETATM   39  CN7 MIY  5181       2.844  34.349 237.642  1.00 20.00     0.116 C 
ENDBRANCH  20  37
TORSDOF 7
ENDMDL
MODEL 6
REMARK VINA RESULT:      -6.3      2.594      3.814
REMARK  7 active torsions:
REMARK  status: ('A' for Active; 'I' for Inactive)
REMARK    1  A    between atoms: C2_6  and  C21_2 
REMARK       I    between atoms: C21_2  and  N2_3 
REMARK    2  A    between atoms: C3_9  and  O2_10 
REMARK    3  A    between atoms: C4_12  and  N1_13 
REMARK    4  A    between atoms: C18_17  and  O7_18 
REMARK    5  A    between atoms: C17_20  and  O6_21 
REMARK    6  A    between atoms: C13_31  and  O4_32 
REMARK    7  A    between atoms: C10_36  and  N7_37 
ROOT
HETATM    1  C2  MIY  5181      -0.613  36.775 236.412  1.00 20.00     0.116 C 
HETATM    2  C1  MIY  5181      -1.065  35.625 235.595  1.00 20.00     0.209 C 
HETATM    3  O1  MIY  5181      -2.233  35.560 235.267  1.00 20.00    -0.288 OA
HETATM    4  C3  MIY  5181       0.721  36.897 236.684  1.00 20.00     0.108 C 
HETATM    5  C4  MIY  5181       1.840  36.002 236.060  1.00 20.00     0.049 C 
HETATM    6  C5  MIY  5181       1.349  35.007 234.954  1.00 20.00     0.088 C 
HETATM    7  C18 MIY  5181      -0.075  34.492 235.226  1.00 20.00     0.180 C 
HETATM    8  C17 MIY  5181      -0.421  33.514 234.083  1.00 20.00     0.097 C 
HETATM    9  C16 MIY  5181       0.193  33.410 232.880  1.00 20.00     0.030 C 
HETATM   10  C7  MIY  5181       1.373  34.258 232.492  1.00 20.00     0.030 C 
HETATM   11  C6  MIY  5181       1.549  35.435 233.481  1.00 20.00     0.024 C 
HETATM   12  C15 MIY  5181      -0.351  32.429 231.915  1.00 20.00     0.194 C 
HETATM   13  O5  MIY  5181      -1.210  31.576 232.182  1.00 20.00    -0.287 OA
HETATM   14  C14 MIY  5181       0.050  32.524 230.492  1.00 20.00     0.056 A 
HETATM   15  C9  MIY  5181       0.738  33.651 230.049  1.00 20.00    -0.019 A 
HETATM   16  C8  MIY  5181       1.116  34.759 231.051  1.00 20.00     0.051 C 
HETATM   17  C13 MIY  5181      -0.336  31.483 229.656  1.00 20.00     0.080 A 
HETATM   18  C12 MIY  5181      -0.016  31.544 228.302  1.00 20.00     0.039 A 
HETATM   19  C11 MIY  5181       0.671  32.663 227.830  1.00 20.00     0.027 A 
HETATM   20  C10 MIY  5181       1.051  33.711 228.684  1.00 20.00     0.017 A 
ENDROOT
BRANCH   1  21
HETATM   21  C21 MIY  5181      -1.614  37.770 236.904  1.00 20.00     0.256 C 
HETATM   22  N2  MIY  5181      -2.686  37.238 237.533  1.00 20.00    -0.366 N 
ATOM     23  H22 MIY  5181      -2.818  36.233 237.654  1.00  0.00     0.159 HD
ATOM     24  H21 MIY  5181      -3.369  37.916 237.869  1.00  0.00     0.159 HD
HETATM   25  O8  MIY  5181      -1.453  38.992 236.756  1.00 20.00    -0.268 OA
ENDBRANCH   1  21
BRANCH   4  26
HETATM   26  O2  MIY  5181       1.104  37.864 237.536  1.00 20.00    -0.358 OA
ATOM     27  H2  MIY  5181       1.974  37.806 237.914  1.00  0.00     0.218 HD
ENDBRANCH   4  26
BRANCH   7  28
HETATM   28  O7  MIY  5181      -0.018  33.634 236.375  1.00 20.00    -0.374 OA
ATOM     29  H7  MIY  5181       0.884  33.342 236.435  1.00  0.00     0.211 HD
ENDBRANCH   7  28
BRANCH   5  30
HETATM   30  N1  MIY  5181       2.842  35.428 237.106  1.00 20.00    -0.390 N 
HETATM   31  C19 MIY  5181       3.307  34.023 236.963  1.00 20.00     0.149 C 
HETATM   32  C20 MIY  5181       4.019  36.279 237.486  1.00 20.00     0.149 C 
ENDBRANCH   5  30
BRANCH   8  33
HETATM   33  O6  MIY  5181      -1.374  32.602 234.334  1.00 20.00    -0.361 OA
ATOM     34  H6  MIY  5181      -1.723  32.149 233.575  1.00  0.00     0.217 HD
ENDBRANCH   8  33
BRANCH  17  35
HETATM   35  O4  MIY  5181      -1.015  30.406 230.190  1.00 20.00    -0.360 OA
ATOM     36  H4  MIY  5181      -1.331  30.412 231.086  1.00  0.00     0.217 HD
ENDBRANCH  17  35
BRANCH  20  37
HETATM   37  N7  MIY  5181       1.686  34.819 228.135  1.00 20.00    -0.291 NA
HETATM   38  C71 MIY  5181       2.237  34.517 226.798  1.00 20.00     0.116 C 
HETATM   39  CN7 MIY  5181       0.579  35.761 227.922  1.00 20.00     0.116 C 
ENDBRANCH  20  37
TORSDOF 7
ENDMDL
MODEL 7
REMARK VINA RESULT:      -6.1      2.055      2.772
REMARK  7 active torsions:
REMARK  status: ('A' for Active; 'I' for Inactive)
REMARK    1  A    between atoms: C2_6  and  C21_2 
REMARK       I    between atoms: C21_2  and  N2_3 
REMARK    2  A    between atoms: C3_9  and  O2_10 
REMARK    3  A    between atoms: C4_12  and  N1_13 
REMARK    4  A    between atoms: C18_17  and  O7_18 
REMARK    5  A    between atoms: C17_20  and  O6_21 
REMARK    6  A    between atoms: C13_31  and  O4_32 
REMARK    7  A    between atoms: C10_36  and  N7_37 
ROOT
HETATM    1  C2  MIY  5181       0.077  36.217 236.058  1.00 20.00     0.116 C 
HETATM    2  C1  MIY  5181      -0.862  36.047 234.925  1.00 20.00     0.209 C 
HETATM    3  O1  MIY  5181      -1.492  37.009 234.534  1.00 20.00    -0.288 OA
HETATM    4  C3  MIY  5181       0.860  35.156 236.420  1.00 20.00     0.108 C 
HETATM    5  C4  MIY  5181       0.966  33.818 235.623  1.00 20.00     0.049 C 
HETATM    6  C5  MIY  5181       0.202  33.802 234.255  1.00 20.00     0.088 C 
HETATM    7  C18 MIY  5181      -1.082  34.647 234.297  1.00 20.00     0.180 C 
HETATM    8  C17 MIY  5181      -1.740  34.527 232.906  1.00 20.00     0.097 C 
HETATM    9  C16 MIY  5181      -1.155  34.115 231.756  1.00 20.00     0.030 C 
HETATM   10  C7  MIY  5181       0.280  33.669 231.687  1.00 20.00     0.030 C 
HETATM   11  C6  MIY  5181       1.036  34.060 232.979  1.00 20.00     0.024 C 
HETATM   12  C15 MIY  5181      -1.975  34.134 230.524  1.00 20.00     0.194 C 
HETATM   13  O5  MIY  5181      -3.199  34.328 230.493  1.00 20.00    -0.287 OA
HETATM   14  C14 MIY  5181      -1.298  34.034 229.210  1.00 20.00     0.056 A 
HETATM   15  C9  MIY  5181       0.087  34.154 229.143  1.00 20.00    -0.019 A 
HETATM   16  C8  MIY  5181       0.902  34.339 230.438  1.00 20.00     0.051 C 
HETATM   17  C13 MIY  5181      -2.109  33.873 228.092  1.00 20.00     0.080 A 
HETATM   18  C12 MIY  5181      -1.523  33.814 226.830  1.00 20.00     0.039 A 
HETATM   19  C11 MIY  5181      -0.137  33.934 226.734  1.00 20.00     0.027 A 
HETATM   20  C10 MIY  5181       0.671  34.102 227.870  1.00 20.00     0.017 A 
ENDROOT
BRANCH   1  21
HETATM   21  C21 MIY  5181       0.151  37.532 236.764  1.00 20.00     0.256 C 
HETATM   22  N2  MIY  5181      -1.043  38.120 237.004  1.00 20.00    -0.366 N 
ATOM     23  H22 MIY  5181      -1.932  37.711 236.715  1.00  0.00     0.159 HD
ATOM     24  H21 MIY  5181      -0.992  39.017 237.485  1.00  0.00     0.159 HD
HETATM   25  O8  MIY  5181       1.233  38.029 237.115  1.00 20.00    -0.268 OA
ENDBRANCH   1  21
BRANCH   4  26
HETATM   26  O2  MIY  5181       1.608  35.277 237.532  1.00 20.00    -0.358 OA
ATOM     27  H2  MIY  5181       1.227  35.001 238.357  1.00  0.00     0.218 HD
ENDBRANCH   4  26
BRANCH   7  28
HETATM   28  O7  MIY  5181      -2.019  33.978 235.153  1.00 20.00    -0.374 OA
ATOM     29  H7  MIY  5181      -2.639  33.551 234.574  1.00  0.00     0.211 HD
ENDBRANCH   7  28
BRANCH   5  30
HETATM   30  N1  MIY  5181       0.816  32.545 236.509  1.00 20.00    -0.390 N 
HETATM   31  C19 MIY  5181      -0.203  32.536 237.592  1.00 20.00     0.149 C 
HETATM   32  C20 MIY  5181       0.782  31.212 235.819  1.00 20.00     0.149 C 
ENDBRANCH   5  30
BRANCH   8  33
HETATM   33  O6  MIY  5181      -3.059  34.768 232.837  1.00 20.00    -0.361 OA
ATOM     34  H6  MIY  5181      -3.404  35.368 233.488  1.00  0.00     0.217 HD
ENDBRANCH   8  33
BRANCH  17  35
HETATM   35  O4  MIY  5181      -3.475  33.762 228.261  1.00 20.00    -0.360 OA
ATOM     36  H4  MIY  5181      -4.071  33.796 227.522  1.00  0.00     0.217 HD
ENDBRANCH  17  35
BRANCH  20  37
HETATM   37  N7  MIY  5181       2.040  34.268 227.694  1.00 20.00    -0.291 NA
HETATM   38  C71 MIY  5181       2.605  33.211 226.829  1.00 20.00     0.116 C 
HETATM   39  CN7 MIY  5181       2.124  35.518 226.927  1.00 20.00     0.116 C 
ENDBRANCH  20  37
TORSDOF 7
ENDMDL
MODEL 8
REMARK VINA RESULT:      -6.0      2.677      7.827
REMARK  7 active torsions:
REMARK  status: ('A' for Active; 'I' for Inactive)
REMARK    1  A    between atoms: C2_6  and  C21_2 
REMARK       I    between atoms: C21_2  and  N2_3 
REMARK    2  A    between atoms: C3_9  and  O2_10 
REMARK    3  A    between atoms: C4_12  and  N1_13 
REMARK    4  A    between atoms: C18_17  and  O7_18 
REMARK    5  A    between atoms: C17_20  and  O6_21 
REMARK    6  A    between atoms: C13_31  and  O4_32 
REMARK    7  A    between atoms: C10_36  and  N7_37 
ROOT
HETATM    1  C2  MIY  5181      -3.551  33.956 232.459  1.00 20.00     0.116 C 
HETATM    2  C1  MIY  5181      -2.896  34.747 233.527  1.00 20.00     0.209 C 
HETATM    3  O1  MIY  5181      -3.491  34.933 234.570  1.00 20.00    -0.288 OA
HETATM    4  C3  MIY  5181      -2.834  33.660 231.334  1.00 20.00     0.108 C 
HETATM    5  C4  MIY  5181      -1.310  33.950 231.151  1.00 20.00     0.049 C 
HETATM    6  C5  MIY  5181      -0.583  34.494 232.428  1.00 20.00     0.088 C 
HETATM    7  C18 MIY  5181      -1.502  35.380 233.286  1.00 20.00     0.180 C 
HETATM    8  C17 MIY  5181      -0.662  35.861 234.488  1.00 20.00     0.097 C 
HETATM    9  C16 MIY  5181       0.498  35.329 234.942  1.00 20.00     0.030 C 
HETATM   10  C7  MIY  5181       1.169  34.156 234.281  1.00 20.00     0.030 C 
HETATM   11  C6  MIY  5181       0.211  33.474 233.276  1.00 20.00     0.024 C 
HETATM   12  C15 MIY  5181       1.101  35.929 236.153  1.00 20.00     0.194 C 
HETATM   13  O5  MIY  5181       0.724  36.986 236.680  1.00 20.00    -0.287 OA
HETATM   14  C14 MIY  5181       2.151  35.179 236.878  1.00 20.00     0.056 A 
HETATM   15  C9  MIY  5181       2.391  33.847 236.552  1.00 20.00    -0.019 A 
HETATM   16  C8  MIY  5181       1.596  33.186 235.410  1.00 20.00     0.051 C 
HETATM   17  C13 MIY  5181       2.817  35.850 237.899  1.00 20.00     0.080 A 
HETATM   18  C12 MIY  5181       3.786  35.176 238.636  1.00 20.00     0.039 A 
HETATM   19  C11 MIY  5181       4.045  33.839 238.332  1.00 20.00     0.027 A 
HETATM   20  C10 MIY  5181       3.362  33.171 237.302  1.00 20.00     0.017 A 
ENDROOT
BRANCH   1  21
HETATM   21  C21 MIY  5181      -4.963  33.497 232.640  1.00 20.00     0.256 C 
HETATM   22  N2  MIY  5181      -5.828  34.458 233.035  1.00 20.00    -0.366 N 
ATOM     23  H22 MIY  5181      -5.547  35.422 233.214  1.00  0.00     0.159 HD
ATOM     24  H21 MIY  5181      -6.791  34.145 233.159  1.00  0.00     0.159 HD
HETATM   25  O8  MIY  5181      -5.305  32.324 232.424  1.00 20.00    -0.268 OA
ENDBRANCH   1  21
BRANCH   4  26
HETATM   26  O2  MIY  5181      -3.478  33.061 230.316  1.00 20.00    -0.358 OA
ATOM     27  H2  MIY  5181      -4.404  32.879 230.421  1.00  0.00     0.218 HD
ENDBRANCH   4  26
BRANCH   7  28
HETATM   28  O7  MIY  5181      -1.746  36.593 232.559  1.00 20.00    -0.374 OA
ATOM     29  H7  MIY  5181      -1.228  36.526 231.765  1.00  0.00     0.211 HD
ENDBRANCH   7  28
BRANCH   5  30
HETATM   30  N1  MIY  5181      -0.961  34.658 229.807  1.00 20.00    -0.390 N 
HETATM   31  C19 MIY  5181       0.050  35.747 229.807  1.00 20.00     0.149 C 
HETATM   32  C20 MIY  5181      -0.724  33.793 228.603  1.00 20.00     0.149 C 
ENDBRANCH   5  30
BRANCH   8  33
HETATM   33  O6  MIY  5181      -1.069  36.984 235.101  1.00 20.00    -0.361 OA
ATOM     34  H6  MIY  5181      -1.368  37.682 234.529  1.00  0.00     0.217 HD
ENDBRANCH   8  33
BRANCH  17  35
HETATM   35  O4  MIY  5181       2.510  37.173 238.147  1.00 20.00    -0.360 OA
ATOM     36  H4  MIY  5181       2.302  37.776 237.443  1.00  0.00     0.217 HD
ENDBRANCH  17  35
BRANCH  20  37
HETATM   37  N7  MIY  5181       3.634  31.824 237.090  1.00 20.00    -0.291 NA
HETATM   38  C71 MIY  5181       5.072  31.530 237.259  1.00 20.00     0.116 C 
HETATM   39  CN7 MIY  5181       2.944  31.169 238.209  1.00 20.00     0.116 C 
ENDBRANCH  20  37
TORSDOF 7
ENDMDL
MODEL 9
REMARK VINA RESULT:      -6.0      2.930      8.123
REMARK  7 active torsions:
REMARK  status: ('A' for Active; 'I' for Inactive)
REMARK    1  A    between atoms: C2_6  and  C21_2 
REMARK       I    between atoms: C21_2  and  N2_3 
REMARK    2  A    between atoms: C3_9  and  O2_10 
REMARK    3  A    between atoms: C4_12  and  N1_13 
REMARK    4  A    between atoms: C18_17  and  O7_18 
REMARK    5  A    between atoms: C17_20  and  O6_21 
REMARK    6  A    between atoms: C13_31  and  O4_32 
REMARK    7  A    between atoms: C10_36  and  N7_37 
ROOT
HETATM    1  C2  MIY  5181      -0.777  34.644 229.125  1.00 20.00     0.116 C 
HETATM    2  C1  MIY  5181       0.066  33.831 230.032  1.00 20.00     0.209 C 
HETATM    3  O1  MIY  5181       1.160  33.468 229.651  1.00 20.00    -0.288 OA
HETATM    4  C3  MIY  5181      -1.959  35.139 229.601  1.00 20.00     0.108 C 
HETATM    5  C4  MIY  5181      -2.420  35.054 231.092  1.00 20.00     0.049 C 
HETATM    6  C5  MIY  5181      -1.354  34.472 232.081  1.00 20.00     0.088 C 
HETATM    7  C18 MIY  5181      -0.473  33.398 231.419  1.00 20.00     0.180 C 
HETATM    8  C17 MIY  5181       0.509  32.900 232.501  1.00 20.00     0.097 C 
HETATM    9  C16 MIY  5181       0.831  33.517 233.663  1.00 20.00     0.030 C 
HETATM   10  C7  MIY  5181       0.218  34.824 234.086  1.00 20.00     0.030 C 
HETATM   11  C6  MIY  5181      -0.528  35.487 232.904  1.00 20.00     0.024 C 
HETATM   12  C15 MIY  5181       1.845  32.871 234.525  1.00 20.00     0.194 C 
HETATM   13  O5  MIY  5181       2.293  31.728 234.354  1.00 20.00    -0.287 OA
HETATM   14  C14 MIY  5181       2.477  33.662 235.605  1.00 20.00     0.056 A 
HETATM   15  C9  MIY  5181       2.281  35.040 235.649  1.00 20.00    -0.019 A 
HETATM   16  C8  MIY  5181       1.372  35.716 234.604  1.00 20.00     0.051 C 
HETATM   17  C13 MIY  5181       3.286  32.974 236.502  1.00 20.00     0.080 A 
HETATM   18  C12 MIY  5181       3.934  33.680 237.513  1.00 20.00     0.039 A 
HETATM   19  C11 MIY  5181       3.758  35.062 237.578  1.00 20.00     0.027 A 
HETATM   20  C10 MIY  5181       2.942  35.746 236.663  1.00 20.00     0.017 A 
ENDROOT
BRANCH   1  21
HETATM   21  C21 MIY  5181      -0.315  34.909 227.728  1.00 20.00     0.256 C 
HETATM   22  N2  MIY  5181       0.820  35.637 227.631  1.00 20.00    -0.366 N 
ATOM     23  H22 MIY  5181       1.322  35.997 228.443  1.00  0.00     0.159 HD
ATOM     24  H21 MIY  5181       1.135  35.818 226.678  1.00  0.00     0.159 HD
HETATM   25  O8  MIY  5181      -0.926  34.472 226.740  1.00 20.00    -0.268 OA
ENDBRANCH   1  21
BRANCH   4  26
HETATM   26  O2  MIY  5181      -2.778  35.758 228.733  1.00 20.00    -0.358 OA
ATOM     27  H2  MIY  5181      -3.076  35.268 227.976  1.00  0.00     0.218 HD
ENDBRANCH   4  26
BRANCH   7  28
HETATM   28  O7  MIY  5181      -1.294  32.247 231.176  1.00 20.00    -0.374 OA
ATOM     29  H7  MIY  5181      -2.125  32.428 231.600  1.00  0.00     0.211 HD
ENDBRANCH   7  28
BRANCH   5  30
HETATM   30  N1  MIY  5181      -3.879  34.536 231.269  1.00 20.00    -0.390 N 
HETATM   31  C19 MIY  5181      -4.328  33.361 230.477  1.00 20.00     0.149 C 
HETATM   32  C20 MIY  5181      -4.404  34.391 232.669  1.00 20.00     0.149 C 
ENDBRANCH   5  30
BRANCH   8  33
HETATM   33  O6  MIY  5181       1.037  31.678 232.322  1.00 20.00    -0.361 OA
ATOM     34  H6  MIY  5181       0.441  31.014 231.994  1.00  0.00     0.217 HD
ENDBRANCH   8  33
BRANCH  17  35
HETATM   35  O4  MIY  5181       3.417  31.606 236.378  1.00 20.00    -0.360 OA
ATOM     36  H4  MIY  5181       4.263  31.199 236.227  1.00  0.00     0.217 HD
ENDBRANCH  17  35
BRANCH  20  37
HETATM   37  N7  MIY  5181       2.855  37.131 236.756  1.00 20.00    -0.291 NA
HETATM   38  C71 MIY  5181       1.643  37.547 237.494  1.00 20.00     0.116 C 
HETATM   39  CN7 MIY  5181       3.998  37.476 237.611  1.00 20.00     0.116 C 
ENDBRANCH  20  37
TORSDOF 7
ENDMDL
