MODEL 1
REMARK VINA RESULT:      -5.7      0.000      0.000
REMARK  3 active torsions:
REMARK  status: ('A' for Active; 'I' for Inactive)
REMARK    1  A    between atoms: C3_4  and  C7_2 
REMARK    2  A    between atoms: C2_9  and  O3_10 
REMARK    3  A    between atoms: C8_11  and  O3_10 
ROOT
HETATM    1  C3  AIN  1536      -1.835  40.552 227.281  1.00 20.00     0.074 A 
HETATM    2  C4  AIN  1536      -2.805  39.585 227.052  1.00 20.00     0.021 A 
HETATM    3  C5  AIN  1536      -3.383  39.459 225.796  1.00 20.00     0.001 A 
HETATM    4  C6  AIN  1536      -3.003  40.294 224.750  1.00 20.00     0.003 A 
HETATM    5  C1  AIN  1536      -2.033  41.280 224.928  1.00 20.00     0.038 A 
HETATM    6  C2  AIN  1536      -1.436  41.461 226.172  1.00 20.00     0.096 A 
ENDROOT
BRANCH   6   7
HETATM    7  O3  AIN  1536      -0.441  42.394 226.366  1.00 20.00    -0.278 OA
BRANCH   7   8
HETATM    8  C8  AIN  1536       0.970  42.261 226.707  1.00 20.00     0.260 C 
HETATM    9  C9  AIN  1536       1.798  41.064 226.356  1.00 20.00     0.126 C 
HETATM   10  O4  AIN  1536       1.503  43.193 227.278  1.00 20.00    -0.265 OA
ENDBRANCH   7   8
ENDBRANCH   6   7
BRANCH   1  11
HETATM   11  C7  AIN  1536      -1.224  40.671 228.650  1.00 20.00     0.212 C 
HETATM   12  O1  AIN  1536      -0.936  39.665 229.279  1.00 20.00    -0.644 OA
HETATM   13  O2  AIN  1536      -1.000  41.764 229.142  1.00 20.00    -0.644 OA
ENDBRANCH   1  11
TORSDOF 3
ENDMDL
MODEL 2
REMARK VINA RESULT:      -5.7      2.296      3.212
REMARK  3 active torsions:
REMARK  status: ('A' for Active; 'I' for Inactive)
REMARK    1  A    between atoms: C3_4  and  C7_2 
REMARK    2  A    between atoms: C2_9  and  O3_10 
REMARK    3  A    between atoms: C8_11  and  O3_10 
ROOT
HETATM    1  C3  AIN  1536      -0.069  39.932 227.876  1.00 20.00     0.074 A 
HETATM    2  C4  AIN  1536      -0.463  38.643 228.213  1.00 20.00     0.021 A 
HETATM    3  C5  AIN  1536       0.389  37.570 227.986  1.00 20.00     0.001 A 
HETATM    4  C6  AIN  1536       1.646  37.765 227.420  1.00 20.00     0.003 A 
HETATM    5  C1  AIN  1536       2.088  39.039 227.064  1.00 20.00     0.038 A 
HETATM    6  C2  AIN  1536       1.267  40.146 227.254  1.00 20.00     0.096 A 
ENDROOT
BRANCH   6   7
HETATM    7  O3  AIN  1536       1.695  41.422 226.958  1.00 20.00    -0.278 OA
BRANCH   7   8
HETATM    8  C8  AIN  1536       2.289  42.469 227.780  1.00 20.00     0.260 C 
HETATM    9  C9  AIN  1536       3.551  42.289 228.565  1.00 20.00     0.126 C 
HETATM   10  O4  AIN  1536       1.740  43.554 227.795  1.00 20.00    -0.265 OA
ENDBRANCH   7   8
ENDBRANCH   6   7
BRANCH   1  11
HETATM   11  C7  AIN  1536      -1.008  41.078 228.130  1.00 20.00     0.212 C 
HETATM   12  O1  AIN  1536      -0.829  41.812 229.089  1.00 20.00    -0.644 OA
HETATM   13  O2  AIN  1536      -1.947  41.293 227.383  1.00 20.00    -0.644 OA
ENDBRANCH   1  11
TORSDOF 3
ENDMDL
MODEL 3
REMARK VINA RESULT:      -5.6      2.666      4.904
REMARK  3 active torsions:
REMARK  status: ('A' for Active; 'I' for Inactive)
REMARK    1  A    between atoms: C3_4  and  C7_2 
REMARK    2  A    between atoms: C2_9  and  O3_10 
REMARK    3  A    between atoms: C8_11  and  O3_10 
ROOT
HETATM    1  C3  AIN  1536       1.050  41.216 228.230  1.00 20.00     0.074 A 
HETATM    2  C4  AIN  1536       1.667  42.359 228.721  1.00 20.00     0.021 A 
HETATM    3  C5  AIN  1536       3.044  42.510 228.617  1.00 20.00     0.001 A 
HETATM    4  C6  AIN  1536       3.825  41.525 228.021  1.00 20.00     0.003 A 
HETATM    5  C1  AIN  1536       3.254  40.359 227.512  1.00 20.00     0.038 A 
HETATM    6  C2  AIN  1536       1.882  40.150 227.608  1.00 20.00     0.096 A 
ENDROOT
BRANCH   6   7
HETATM    7  O3  AIN  1536       1.283  39.031 227.071  1.00 20.00    -0.278 OA
BRANCH   7   8
HETATM    8  C8  AIN  1536       1.371  37.616 227.411  1.00 20.00     0.260 C 
HETATM    9  C9  AIN  1536       2.470  36.717 226.937  1.00 20.00     0.126 C 
HETATM   10  O4  AIN  1536       0.519  37.160 228.149  1.00 20.00    -0.265 OA
ENDBRANCH   7   8
ENDBRANCH   6   7
BRANCH   1  11
HETATM   11  C7  AIN  1536      -0.441  41.074 228.356  1.00 20.00     0.212 C 
HETATM   12  O1  AIN  1536      -1.179  41.711 227.620  1.00 20.00    -0.644 OA
HETATM   13  O2  AIN  1536      -0.930  40.320 229.180  1.00 20.00    -0.644 OA
ENDBRANCH   1  11
TORSDOF 3
ENDMDL
MODEL 4
REMARK VINA RESULT:      -5.6      1.786      4.393
REMARK  3 active torsions:
REMARK  status: ('A' for Active; 'I' for Inactive)
REMARK    1  A    between atoms: C3_4  and  C7_2 
REMARK    2  A    between atoms: C2_9  and  O3_10 
REMARK    3  A    between atoms: C8_11  and  O3_10 
ROOT
HETATM    1  C3  AIN  1536       1.710  41.195 228.043  1.00 20.00     0.074 A 
HETATM    2  C4  AIN  1536       3.060  40.965 227.809  1.00 20.00     0.021 A 
HETATM    3  C5  AIN  1536       3.486  39.736 227.324  1.00 20.00     0.001 A 
HETATM    4  C6  AIN  1536       2.574  38.718 227.063  1.00 20.00     0.003 A 
HETATM    5  C1  AIN  1536       1.208  38.898 227.281  1.00 20.00     0.038 A 
HETATM    6  C2  AIN  1536       0.731  40.104 227.783  1.00 20.00     0.096 A 
ENDROOT
BRANCH   6   7
HETATM    7  O3  AIN  1536      -0.617  40.329 227.962  1.00 20.00    -0.278 OA
BRANCH   7   8
HETATM    8  C8  AIN  1536      -1.651  40.836 227.068  1.00 20.00     0.260 C 
HETATM    9  C9  AIN  1536      -2.736  39.983 226.489  1.00 20.00     0.126 C 
HETATM   10  O4  AIN  1536      -1.641  42.024 226.811  1.00 20.00    -0.265 OA
ENDBRANCH   7   8
ENDBRANCH   6   7
BRANCH   1  11
HETATM   11  C7  AIN  1536       1.272  42.533 228.570  1.00 20.00     0.212 C 
HETATM   12  O1  AIN  1536       0.685  42.606 229.638  1.00 20.00    -0.644 OA
HETATM   13  O2  AIN  1536       1.505  43.555 227.948  1.00 20.00    -0.644 OA
ENDBRANCH   1  11
TORSDOF 3
ENDMDL
MODEL 5
REMARK VINA RESULT:      -5.3      1.732      3.163
REMARK  3 active torsions:
REMARK  status: ('A' for Active; 'I' for Inactive)
REMARK    1  A    between atoms: C3_4  and  C7_2 
REMARK    2  A    between atoms: C2_9  and  O3_10 
REMARK    3  A    between atoms: C8_11  and  O3_10 
ROOT
HETATM    1  C3  AIN  1536      -2.137  39.882 227.053  1.00 20.00     0.074 A 
HETATM    2  C4  AIN  1536      -3.336  39.182 227.076  1.00 20.00     0.021 A 
HETATM    3  C5  AIN  1536      -3.499  38.103 227.935  1.00 20.00     0.001 A 
HETATM    4  C6  AIN  1536      -2.470  37.707 228.784  1.00 20.00     0.003 A 
HETATM    5  C1  AIN  1536      -1.247  38.377 228.799  1.00 20.00     0.038 A 
HETATM    6  C2  AIN  1536      -1.026  39.453 227.946  1.00 20.00     0.096 A 
ENDROOT
BRANCH   6   7
HETATM    7  O3  AIN  1536       0.154  40.165 227.973  1.00 20.00    -0.278 OA
BRANCH   7   8
HETATM    8  C8  AIN  1536       0.519  41.427 228.603  1.00 20.00     0.260 C 
HETATM    9  C9  AIN  1536       1.877  42.048 228.486  1.00 20.00     0.126 C 
HETATM   10  O4  AIN  1536      -0.342  42.016 229.227  1.00 20.00    -0.265 OA
ENDBRANCH   7   8
ENDBRANCH   6   7
BRANCH   1  11
HETATM   11  C7  AIN  1536      -1.983  41.046 226.114  1.00 20.00     0.212 C 
HETATM   12  O1  AIN  1536      -2.114  42.187 226.529  1.00 20.00    -0.644 OA
HETATM   13  O2  AIN  1536      -1.718  40.869 224.937  1.00 20.00    -0.644 OA
ENDBRANCH   1  11
TORSDOF 3
ENDMDL
MODEL 6
REMARK VINA RESULT:      -5.3     10.357     12.662
REMARK  3 active torsions:
REMARK  status: ('A' for Active; 'I' for Inactive)
REMARK    1  A    between atoms: C3_4  and  C7_2 
REMARK    2  A    between atoms: C2_9  and  O3_10 
REMARK    3  A    between atoms: C8_11  and  O3_10 
ROOT
HETATM    1  C3  AIN  1536       2.666  36.909 237.191  1.00 20.00     0.074 A 
HETATM    2  C4  AIN  1536       3.766  37.645 237.614  1.00 20.00     0.021 A 
HETATM    3  C5  AIN  1536       4.647  37.111 238.545  1.00 20.00     0.001 A 
HETATM    4  C6  AIN  1536       4.447  35.837 239.068  1.00 20.00     0.003 A 
HETATM    5  C1  AIN  1536       3.359  35.058 238.675  1.00 20.00     0.038 A 
HETATM    6  C2  AIN  1536       2.436  35.552 237.759  1.00 20.00     0.096 A 
ENDROOT
BRANCH   6   7
HETATM    7  O3  AIN  1536       1.379  34.788 237.316  1.00 20.00    -0.278 OA
BRANCH   7   8
HETATM    8  C8  AIN  1536       1.217  33.922 236.154  1.00 20.00     0.260 C 
HETATM    9  C9  AIN  1536       2.344  33.537 235.246  1.00 20.00     0.126 C 
HETATM   10  O4  AIN  1536       0.111  33.467 235.939  1.00 20.00    -0.265 OA
ENDBRANCH   7   8
ENDBRANCH   6   7
BRANCH   1  11
HETATM   11  C7  AIN  1536       1.725  37.507 236.184  1.00 20.00     0.212 C 
HETATM   12  O1  AIN  1536       1.921  37.340 234.990  1.00 20.00    -0.644 OA
HETATM   13  O2  AIN  1536       0.755  38.154 236.542  1.00 20.00    -0.644 OA
ENDBRANCH   1  11
TORSDOF 3
ENDMDL
MODEL 7
REMARK VINA RESULT:      -5.2     11.411     12.997
REMARK  3 active torsions:
REMARK  status: ('A' for Active; 'I' for Inactive)
REMARK    1  A    between atoms: C3_4  and  C7_2 
REMARK    2  A    between atoms: C2_9  and  O3_10 
REMARK    3  A    between atoms: C8_11  and  O3_10 
ROOT
HETATM    1  C3  AIN  1536       2.368  36.766 237.560  1.00 20.00     0.074 A 
HETATM    2  C4  AIN  1536       1.372  37.717 237.379  1.00 20.00     0.021 A 
HETATM    3  C5  AIN  1536       0.124  37.340 236.902  1.00 20.00     0.001 A 
HETATM    4  C6  AIN  1536      -0.151  36.010 236.598  1.00 20.00     0.003 A 
HETATM    5  C1  AIN  1536       0.815  35.017 236.762  1.00 20.00     0.038 A 
HETATM    6  C2  AIN  1536       2.087  35.344 237.220  1.00 20.00     0.096 A 
ENDROOT
BRANCH   6   7
HETATM    7  O3  AIN  1536       3.045  34.379 237.438  1.00 20.00    -0.278 OA
BRANCH   7   8
HETATM    8  C8  AIN  1536       3.443  33.649 238.636  1.00 20.00     0.260 C 
HETATM    9  C9  AIN  1536       4.467  32.557 238.638  1.00 20.00     0.126 C 
HETATM   10  O4  AIN  1536       2.934  33.976 239.691  1.00 20.00    -0.265 OA
ENDBRANCH   7   8
ENDBRANCH   6   7
BRANCH   1  11
HETATM   11  C7  AIN  1536       3.712  37.198 238.077  1.00 20.00     0.212 C 
HETATM   12  O1  AIN  1536       3.880  37.363 239.275  1.00 20.00    -0.644 OA
HETATM   13  O2  AIN  1536       4.646  37.377 237.314  1.00 20.00    -0.644 OA
ENDBRANCH   1  11
TORSDOF 3
ENDMDL
MODEL 8
REMARK VINA RESULT:      -5.2      1.942      3.742
REMARK  3 active torsions:
REMARK  status: ('A' for Active; 'I' for Inactive)
REMARK    1  A    between atoms: C3_4  and  C7_2 
REMARK    2  A    between atoms: C2_9  and  O3_10 
REMARK    3  A    between atoms: C8_11  and  O3_10 
ROOT
HETATM    1  C3  AIN  1536      -1.077  40.874 227.578  1.00 20.00     0.074 A 
HETATM    2  C4  AIN  1536      -1.386  41.588 226.426  1.00 20.00     0.021 A 
HETATM    3  C5  AIN  1536      -2.414  41.162 225.596  1.00 20.00     0.001 A 
HETATM    4  C6  AIN  1536      -3.149  40.021 225.899  1.00 20.00     0.003 A 
HETATM    5  C1  AIN  1536      -2.879  39.270 227.043  1.00 20.00     0.038 A 
HETATM    6  C2  AIN  1536      -1.848  39.643 227.900  1.00 20.00     0.096 A 
ENDROOT
BRANCH   6   7
HETATM    7  O3  AIN  1536      -1.590  38.950 229.062  1.00 20.00    -0.278 OA
BRANCH   7   8
HETATM    8  C8  AIN  1536      -1.413  37.528 229.335  1.00 20.00     0.260 C 
HETATM    9  C9  AIN  1536      -0.477  36.649 228.567  1.00 20.00     0.126 C 
HETATM   10  O4  AIN  1536      -2.040  37.049 230.260  1.00 20.00    -0.265 OA
ENDBRANCH   7   8
ENDBRANCH   6   7
BRANCH   1  11
HETATM   11  C7  AIN  1536       0.041  41.354 228.462  1.00 20.00     0.212 C 
HETATM   12  O1  AIN  1536       1.149  40.847 228.374  1.00 20.00    -0.644 OA
HETATM   13  O2  AIN  1536      -0.139  42.254 229.264  1.00 20.00    -0.644 OA
ENDBRANCH   1  11
TORSDOF 3
ENDMDL
MODEL 9
REMARK VINA RESULT:      -5.1     11.194     12.196
REMARK  3 active torsions:
REMARK  status: ('A' for Active; 'I' for Inactive)
REMARK    1  A    between atoms: C3_4  and  C7_2 
REMARK    2  A    between atoms: C2_9  and  O3_10 
REMARK    3  A    between atoms: C8_11  and  O3_10 
ROOT
HETATM    1  C3  AIN  1536       0.666  35.256 236.851  1.00 20.00     0.074 A 
HETATM    2  C4  AIN  1536      -0.620  35.684 236.547  1.00 20.00     0.021 A 
HETATM    3  C5  AIN  1536      -0.930  37.037 236.573  1.00 20.00     0.001 A 
HETATM    4  C6  AIN  1536       0.035  37.984 236.901  1.00 20.00     0.003 A 
HETATM    5  C1  AIN  1536       1.341  37.606 237.214  1.00 20.00     0.038 A 
HETATM    6  C2  AIN  1536       1.700  36.262 237.221  1.00 20.00     0.096 A 
ENDROOT
BRANCH   6   7
HETATM    7  O3  AIN  1536       2.993  35.862 237.478  1.00 20.00    -0.278 OA
BRANCH   7   8
HETATM    8  C8  AIN  1536       4.092  36.504 238.188  1.00 20.00     0.260 C 
HETATM    9  C9  AIN  1536       4.337  36.340 239.656  1.00 20.00     0.126 C 
HETATM   10  O4  AIN  1536       4.866  37.179 237.537  1.00 20.00    -0.265 OA
ENDBRANCH   7   8
ENDBRANCH   6   7
BRANCH   1  11
HETATM   11  C7  AIN  1536       0.979  33.786 236.818  1.00 20.00     0.212 C 
HETATM   12  O1  AIN  1536       1.606  33.316 235.881  1.00 20.00    -0.644 OA
HETATM   13  O2  AIN  1536       0.623  33.051 237.723  1.00 20.00    -0.644 OA
ENDBRANCH   1  11
TORSDOF 3
ENDMDL
