MODEL 1
REMARK VINA RESULT:      -7.2      0.000      0.000
REMARK  1 active torsions:
REMARK  status: ('A' for Active; 'I' for Inactive)
REMARK    1  A    between atoms: C1_3  and  C3_4 
REMARK       I    between atoms: C3_4  and  N5_5 
REMARK       I    between atoms: C6_7  and  N5_5 
REMARK       I    between atoms: C6_7  and  N7_8 
ROOT
HETATM    1  N1  AMR  1607      -0.547  40.542 228.355  1.00 20.00    -0.337 N 
ATOM      2  H1  AMR  1607      -0.398  40.108 229.266  1.00  0.00     0.167 HD
HETATM    3  C1  AMR  1607       0.246  41.552 227.974  1.00 20.00     0.144 A 
HETATM    4  C2  AMR  1607       0.051  42.157 226.724  1.00 20.00     0.150 A 
HETATM    5  N4  AMR  1607       0.853  43.225 226.273  1.00 20.00    -0.080 NA
HETATM    6  N3  AMR  1607      -0.936  41.711 225.914  1.00 20.00    -0.329 N 
ATOM      7  H3  AMR  1607      -1.079  42.149 225.004  1.00  0.00     0.168 HD
HETATM    8  C4  AMR  1607      -1.740  40.685 226.301  1.00 20.00     0.156 A 
HETATM    9  N2  AMR  1607      -2.763  40.261 225.407  1.00 20.00    -0.079 NA
HETATM   10  C5  AMR  1607      -1.535  40.086 227.563  1.00 20.00     0.145 A 
HETATM   11 CL1  AMR  1607      -2.512  38.770 228.150  1.00 20.00    -0.061 Cl
ENDROOT
BRANCH   3  12
HETATM   12  C3  AMR  1607       1.370  42.005 228.987  1.00 20.00     0.289 C 
HETATM   13  N5  AMR  1607       2.695  41.876 228.557  1.00 20.00    -0.155 N 
HETATM   14  C6  AMR  1607       3.733  42.084 229.319  1.00 20.00     0.672 C 
ATOM     15  H5  AMR  1607       2.859  41.602 227.589  1.00  0.00     0.187 HD
HETATM   16  N7  AMR  1607       3.626  42.428 230.581  1.00 20.00    -0.235 N 
HETATM   17  N6  AMR  1607       4.917  41.938 228.798  1.00 20.00    -0.235 N 
ATOM     18  H72 AMR  1607       2.699  42.542 230.990  1.00  0.00     0.174 HD
ATOM     19  H71 AMR  1607       4.438  42.591 231.177  1.00  0.00     0.174 HD
ATOM     20  H62 AMR  1607       5.729  42.101 229.393  1.00  0.00     0.174 HD
ATOM     21  H61 AMR  1607       5.000  41.670 227.817  1.00  0.00     0.174 HD
HETATM   22  O1  AMR  1607       1.062  42.438 230.104  1.00 20.00    -0.265 OA
ENDBRANCH   3  12
TORSDOF 1
ENDMDL
MODEL 2
REMARK VINA RESULT:      -6.4      1.417      1.679
REMARK  1 active torsions:
REMARK  status: ('A' for Active; 'I' for Inactive)
REMARK    1  A    between atoms: C1_3  and  C3_4 
REMARK       I    between atoms: C3_4  and  N5_5 
REMARK       I    between atoms: C6_7  and  N5_5 
REMARK       I    between atoms: C6_7  and  N7_8 
ROOT
HETATM    1  N1  AMR  1607      -0.840  39.508 228.908  1.00 20.00    -0.337 N 
ATOM      2  H1  AMR  1607      -0.243  39.219 229.684  1.00  0.00     0.167 HD
HETATM    3  C1  AMR  1607      -0.567  40.650 228.263  1.00 20.00     0.144 A 
HETATM    4  C2  AMR  1607      -1.381  41.058 227.196  1.00 20.00     0.150 A 
HETATM    5  N4  AMR  1607      -1.142  42.249 226.483  1.00 20.00    -0.080 NA
HETATM    6  N3  AMR  1607      -2.432  40.290 226.828  1.00 20.00    -0.329 N 
ATOM      7  H3  AMR  1607      -3.025  40.584 226.051  1.00  0.00     0.168 HD
HETATM    8  C4  AMR  1607      -2.707  39.132 227.483  1.00 20.00     0.156 A 
HETATM    9  N2  AMR  1607      -3.829  38.368 227.053  1.00 20.00    -0.079 NA
HETATM   10  C5  AMR  1607      -1.883  38.734 228.557  1.00 20.00     0.145 A 
HETATM   11 CL1  AMR  1607      -2.154  37.270 229.460  1.00 20.00    -0.061 Cl
ENDROOT
BRANCH   3  12
HETATM   12  C3  AMR  1607       0.679  41.479 228.764  1.00 20.00     0.289 C 
HETATM   13  N5  AMR  1607       1.937  41.062 228.314  1.00 20.00    -0.155 N 
HETATM   14  C6  AMR  1607       3.066  41.559 228.737  1.00 20.00     0.672 C 
ATOM     15  H5  AMR  1607       1.972  40.323 227.611  1.00  0.00     0.187 HD
HETATM   16  N7  AMR  1607       3.126  42.504 229.646  1.00 20.00    -0.235 N 
HETATM   17  N6  AMR  1607       4.171  41.091 228.233  1.00 20.00    -0.235 N 
ATOM     18  H72 AMR  1607       2.260  42.871 230.042  1.00  0.00     0.174 HD
ATOM     19  H71 AMR  1607       4.009  42.892 229.977  1.00  0.00     0.174 HD
ATOM     20  H62 AMR  1607       5.054  41.480 228.564  1.00  0.00     0.174 HD
ATOM     21  H61 AMR  1607       4.125  40.357 227.526  1.00  0.00     0.174 HD
HETATM   22  O1  AMR  1607       0.521  42.439 229.528  1.00 20.00    -0.265 OA
ENDBRANCH   3  12
TORSDOF 1
ENDMDL
MODEL 3
REMARK VINA RESULT:      -6.3      2.301      3.212
REMARK  1 active torsions:
REMARK  status: ('A' for Active; 'I' for Inactive)
REMARK    1  A    between atoms: C1_3  and  C3_4 
REMARK       I    between atoms: C3_4  and  N5_5 
REMARK       I    between atoms: C6_7  and  N5_5 
REMARK       I    between atoms: C6_7  and  N7_8 
ROOT
HETATM    1  N1  AMR  1607      -1.478  41.246 224.965  1.00 20.00    -0.337 N 
ATOM      2  H1  AMR  1607      -0.869  41.730 224.305  1.00  0.00     0.167 HD
HETATM    3  C1  AMR  1607      -1.237  41.353 226.278  1.00 20.00     0.144 A 
HETATM    4  C2  AMR  1607      -2.066  40.691 227.195  1.00 20.00     0.150 A 
HETATM    5  N4  AMR  1607      -1.858  40.767 228.587  1.00 20.00    -0.080 NA
HETATM    6  N3  AMR  1607      -3.105  39.952 226.741  1.00 20.00    -0.329 N 
ATOM      7  H3  AMR  1607      -3.711  39.471 227.407  1.00  0.00     0.168 HD
HETATM    8  C4  AMR  1607      -3.349  39.845 225.409  1.00 20.00     0.156 A 
HETATM    9  N2  AMR  1607      -4.455  39.052 224.992  1.00 20.00    -0.079 NA
HETATM   10  C5  AMR  1607      -2.506  40.513 224.496  1.00 20.00     0.145 A 
HETATM   11 CL1  AMR  1607      -2.734  40.435 222.772  1.00 20.00    -0.061 Cl
ENDROOT
BRANCH   3  12
HETATM   12  C3  AMR  1607      -0.001  42.235 226.712  1.00 20.00     0.289 C 
HETATM   13  N5  AMR  1607       0.744  41.782 227.806  1.00 20.00    -0.155 N 
HETATM   14  C6  AMR  1607       1.708  42.459 228.364  1.00 20.00     0.672 C 
ATOM     15  H5  AMR  1607       0.518  40.865 228.191  1.00  0.00     0.187 HD
HETATM   16  N7  AMR  1607       2.066  43.652 227.949  1.00 20.00    -0.235 N 
HETATM   17  N6  AMR  1607       2.333  41.924 229.373  1.00 20.00    -0.235 N 
ATOM     18  H72 AMR  1607       1.577  44.073 227.159  1.00  0.00     0.174 HD
ATOM     19  H71 AMR  1607       2.821  44.182 228.386  1.00  0.00     0.174 HD
ATOM     20  H62 AMR  1607       3.087  42.454 229.810  1.00  0.00     0.174 HD
ATOM     21  H61 AMR  1607       2.055  40.997 229.696  1.00  0.00     0.174 HD
HETATM   22  O1  AMR  1607       0.263  43.279 226.103  1.00 20.00    -0.265 OA
ENDBRANCH   3  12
TORSDOF 1
ENDMDL
MODEL 4
REMARK VINA RESULT:      -6.0      2.859      3.944
REMARK  1 active torsions:
REMARK  status: ('A' for Active; 'I' for Inactive)
REMARK    1  A    between atoms: C1_3  and  C3_4 
REMARK       I    between atoms: C3_4  and  N5_5 
REMARK       I    between atoms: C6_7  and  N5_5 
REMARK       I    between atoms: C6_7  and  N7_8 
ROOT
HETATM    1  N1  AMR  1607       0.333  38.004 227.910  1.00 20.00    -0.337 N 
ATOM      2  H1  AMR  1607       1.167  37.829 227.349  1.00  0.00     0.167 HD
HETATM    3  C1  AMR  1607      -0.152  39.249 227.993  1.00 20.00     0.144 A 
HETATM    4  C2  AMR  1607      -1.297  39.501 228.763  1.00 20.00     0.150 A 
HETATM    5  N4  AMR  1607      -1.849  40.792 228.887  1.00 20.00    -0.080 NA
HETATM    6  N3  AMR  1607      -1.901  38.480 229.412  1.00 20.00    -0.329 N 
ATOM      7  H3  AMR  1607      -2.735  38.660 229.972  1.00  0.00     0.168 HD
HETATM    8  C4  AMR  1607      -1.408  37.216 229.327  1.00 20.00     0.156 A 
HETATM    9  N2  AMR  1607      -2.086  36.184 230.035  1.00 20.00    -0.079 NA
HETATM   10  C5  AMR  1607      -0.254  36.976 228.552  1.00 20.00     0.145 A 
HETATM   11 CL1  AMR  1607       0.455  35.395 228.383  1.00 20.00    -0.061 Cl
ENDROOT
BRANCH   3  12
HETATM   12  C3  AMR  1607       0.621  40.376 227.202  1.00 20.00     0.289 C 
HETATM   13  N5  AMR  1607       1.168  41.417 227.960  1.00 20.00    -0.155 N 
HETATM   14  C6  AMR  1607       1.720  42.482 227.448  1.00 20.00     0.672 C 
ATOM     15  H5  AMR  1607       1.132  41.338 228.977  1.00  0.00     0.187 HD
HETATM   16  N7  AMR  1607       1.805  42.681 226.153  1.00 20.00    -0.235 N 
HETATM   17  N6  AMR  1607       2.201  43.377 228.262  1.00 20.00    -0.235 N 
ATOM     18  H72 AMR  1607       1.428  41.980 225.515  1.00  0.00     0.174 HD
ATOM     19  H71 AMR  1607       2.237  43.514 225.753  1.00  0.00     0.174 HD
ATOM     20  H62 AMR  1607       2.633  44.210 227.861  1.00  0.00     0.174 HD
ATOM     21  H61 AMR  1607       2.135  43.223 229.268  1.00  0.00     0.174 HD
HETATM   22  O1  AMR  1607       0.711  40.321 225.970  1.00 20.00    -0.265 OA
ENDBRANCH   3  12
TORSDOF 1
ENDMDL
MODEL 5
REMARK VINA RESULT:      -5.9      2.282      2.585
REMARK  1 active torsions:
REMARK  status: ('A' for Active; 'I' for Inactive)
REMARK    1  A    between atoms: C1_3  and  C3_4 
REMARK       I    between atoms: C3_4  and  N5_5 
REMARK       I    between atoms: C6_7  and  N5_5 
REMARK       I    between atoms: C6_7  and  N7_8 
ROOT
HETATM    1  N1  AMR  1607       1.891  39.875 227.939  1.00 20.00    -0.337 N 
ATOM      2  H1  AMR  1607       2.845  39.605 227.699  1.00  0.00     0.167 HD
HETATM    3  C1  AMR  1607       1.676  41.045 228.554  1.00 20.00     0.144 A 
HETATM    4  C2  AMR  1607       0.369  41.426 228.890  1.00 20.00     0.150 A 
HETATM    5  N4  AMR  1607       0.085  42.644 229.539  1.00 20.00    -0.080 NA
HETATM    6  N3  AMR  1607      -0.663  40.607 228.584  1.00 20.00    -0.329 N 
ATOM      7  H3  AMR  1607      -1.616  40.883 228.825  1.00  0.00     0.168 HD
HETATM    8  C4  AMR  1607      -0.445  39.421 227.958  1.00 20.00     0.156 A 
HETATM    9  N2  AMR  1607      -1.570  38.600 227.665  1.00 20.00    -0.079 NA
HETATM   10  C5  AMR  1607       0.876  39.047 227.629  1.00 20.00     0.145 A 
HETATM   11 CL1  AMR  1607       1.259  37.548 226.831  1.00 20.00    -0.061 Cl
ENDROOT
BRANCH   3  12
HETATM   12  C3  AMR  1607       2.942  41.934 228.872  1.00 20.00     0.289 C 
HETATM   13  N5  AMR  1607       3.797  41.476 229.881  1.00 20.00    -0.155 N 
HETATM   14  C6  AMR  1607       4.808  42.156 230.347  1.00 20.00     0.672 C 
ATOM     15  H5  AMR  1607       3.617  40.553 230.277  1.00  0.00     0.187 HD
HETATM   16  N7  AMR  1607       5.113  43.356 229.911  1.00 20.00    -0.235 N 
HETATM   17  N6  AMR  1607       5.534  41.615 231.282  1.00 20.00    -0.235 N 
ATOM     18  H72 AMR  1607       4.544  43.780 229.178  1.00  0.00     0.174 HD
ATOM     19  H71 AMR  1607       5.904  43.888 230.275  1.00  0.00     0.174 HD
ATOM     20  H62 AMR  1607       6.325  42.147 231.646  1.00  0.00     0.174 HD
ATOM     21  H61 AMR  1607       5.297  40.683 231.621  1.00  0.00     0.174 HD
HETATM   22  O1  AMR  1607       3.136  42.986 228.251  1.00 20.00    -0.265 OA
ENDBRANCH   3  12
TORSDOF 1
ENDMDL
MODEL 6
REMARK VINA RESULT:      -5.6      8.332     10.331
REMARK  1 active torsions:
REMARK  status: ('A' for Active; 'I' for Inactive)
REMARK    1  A    between atoms: C1_3  and  C3_4 
REMARK       I    between atoms: C3_4  and  N5_5 
REMARK       I    between atoms: C6_7  and  N5_5 
REMARK       I    between atoms: C6_7  and  N7_8 
ROOT
HETATM    1  N1  AMR  1607       1.435  35.828 235.502  1.00 20.00    -0.337 N 
ATOM      2  H1  AMR  1607       1.483  35.085 234.803  1.00  0.00     0.167 HD
HETATM    3  C1  AMR  1607       0.306  36.538 235.626  1.00 20.00     0.144 A 
HETATM    4  C2  AMR  1607       0.229  37.561 236.582  1.00 20.00     0.150 A 
HETATM    5  N4  AMR  1607      -0.932  38.341 236.755  1.00 20.00    -0.080 NA
HETATM    6  N3  AMR  1607       1.297  37.818 237.370  1.00 20.00    -0.329 N 
ATOM      7  H3  AMR  1607       1.243  38.562 238.068  1.00  0.00     0.168 HD
HETATM    8  C4  AMR  1607       2.442  37.097 237.244  1.00 20.00     0.156 A 
HETATM    9  N2  AMR  1607       3.534  37.416 238.100  1.00 20.00    -0.079 NA
HETATM   10  C5  AMR  1607       2.508  36.071 236.277  1.00 20.00     0.145 A 
HETATM   11 CL1  AMR  1607       3.929  35.095 236.036  1.00 20.00    -0.061 Cl
ENDROOT
BRANCH   3  12
HETATM   12  C3  AMR  1607      -0.887  36.166 234.661  1.00 20.00     0.289 C 
HETATM   13  N5  AMR  1607      -0.851  36.714 233.374  1.00 20.00    -0.155 N 
HETATM   14  C6  AMR  1607      -1.820  36.608 232.507  1.00 20.00     0.672 C 
ATOM     15  H5  AMR  1607      -0.014  37.227 233.097  1.00  0.00     0.187 HD
HETATM   16  N7  AMR  1607      -2.940  35.976 232.773  1.00 20.00    -0.235 N 
HETATM   17  N6  AMR  1607      -1.661  37.155 231.337  1.00 20.00    -0.235 N 
ATOM     18  H72 AMR  1607      -3.065  35.547 233.690  1.00  0.00     0.174 HD
ATOM     19  H71 AMR  1607      -3.698  35.894 232.096  1.00  0.00     0.174 HD
ATOM     20  H62 AMR  1607      -2.419  37.072 230.659  1.00  0.00     0.174 HD
ATOM     21  H61 AMR  1607      -0.791  37.646 231.130  1.00  0.00     0.174 HD
HETATM   22  O1  AMR  1607      -1.803  35.435 235.057  1.00 20.00    -0.265 OA
ENDBRANCH   3  12
TORSDOF 1
ENDMDL
MODEL 7
REMARK VINA RESULT:      -5.5      8.342      9.277
REMARK  1 active torsions:
REMARK  status: ('A' for Active; 'I' for Inactive)
REMARK    1  A    between atoms: C1_3  and  C3_4 
REMARK       I    between atoms: C3_4  and  N5_5 
REMARK       I    between atoms: C6_7  and  N5_5 
REMARK       I    between atoms: C6_7  and  N7_8 
ROOT
HETATM    1  N1  AMR  1607       1.382  35.637 234.149  1.00 20.00    -0.337 N 
ATOM      2  H1  AMR  1607       2.307  35.208 234.111  1.00  0.00     0.167 HD
HETATM    3  C1  AMR  1607       0.937  36.131 235.312  1.00 20.00     0.144 A 
HETATM    4  C2  AMR  1607      -0.333  36.723 235.377  1.00 20.00     0.150 A 
HETATM    5  N4  AMR  1607      -0.853  37.257 236.573  1.00 20.00    -0.080 NA
HETATM    6  N3  AMR  1607      -1.095  36.790 234.261  1.00 20.00    -0.329 N 
ATOM      7  H3  AMR  1607      -2.018  37.221 234.305  1.00  0.00     0.168 HD
HETATM    8  C4  AMR  1607      -0.642  36.289 233.081  1.00 20.00     0.156 A 
HETATM    9  N2  AMR  1607      -1.489  36.386 231.942  1.00 20.00    -0.079 NA
HETATM   10  C5  AMR  1607       0.637  35.694 233.030  1.00 20.00     0.145 A 
HETATM   11 CL1  AMR  1607       1.304  35.021 231.569  1.00 20.00    -0.061 Cl
ENDROOT
BRANCH   3  12
HETATM   12  C3  AMR  1607       1.895  36.006 236.561  1.00 20.00     0.289 C 
HETATM   13  N5  AMR  1607       2.973  36.896 236.620  1.00 20.00    -0.155 N 
HETATM   14  C6  AMR  1607       3.921  36.837 237.514  1.00 20.00     0.672 C 
ATOM     15  H5  AMR  1607       3.019  37.638 235.921  1.00  0.00     0.187 HD
HETATM   16  N7  AMR  1607       3.956  35.914 238.447  1.00 20.00    -0.235 N 
HETATM   17  N6  AMR  1607       4.866  37.731 237.468  1.00 20.00    -0.235 N 
ATOM     18  H72 AMR  1607       3.216  35.213 238.483  1.00  0.00     0.174 HD
ATOM     19  H71 AMR  1607       4.698  35.867 239.146  1.00  0.00     0.174 HD
ATOM     20  H62 AMR  1607       5.608  37.684 238.167  1.00  0.00     0.174 HD
ATOM     21  H61 AMR  1607       4.839  38.448 236.743  1.00  0.00     0.174 HD
HETATM   22  O1  AMR  1607       1.685  35.143 237.422  1.00 20.00    -0.265 OA
ENDBRANCH   3  12
TORSDOF 1
ENDMDL
MODEL 8
REMARK VINA RESULT:      -5.5      3.201      5.229
REMARK  1 active torsions:
REMARK  status: ('A' for Active; 'I' for Inactive)
REMARK    1  A    between atoms: C1_3  and  C3_4 
REMARK       I    between atoms: C3_4  and  N5_5 
REMARK       I    between atoms: C6_7  and  N5_5 
REMARK       I    between atoms: C6_7  and  N7_8 
ROOT
HETATM    1  N1  AMR  1607       0.885  40.219 228.044  1.00 20.00    -0.337 N 
ATOM      2  H1  AMR  1607       1.571  39.694 228.588  1.00  0.00     0.167 HD
HETATM    3  C1  AMR  1607      -0.328  39.691 227.834  1.00 20.00     0.144 A 
HETATM    4  C2  AMR  1607      -1.278  40.402 227.088  1.00 20.00     0.150 A 
HETATM    5  N4  AMR  1607      -2.568  39.894 226.835  1.00 20.00    -0.080 NA
HETATM    6  N3  AMR  1607      -0.959  41.618 226.589  1.00 20.00    -0.329 N 
ATOM      7  H3  AMR  1607      -1.649  42.139 226.047  1.00  0.00     0.168 HD
HETATM    8  C4  AMR  1607       0.272  42.154 226.803  1.00 20.00     0.156 A 
HETATM    9  N2  AMR  1607       0.550  43.436 226.251  1.00 20.00    -0.079 NA
HETATM   10  C5  AMR  1607       1.220  41.427 227.553  1.00 20.00     0.145 A 
HETATM   11 CL1  AMR  1607       2.822  42.025 227.879  1.00 20.00    -0.061 Cl
ENDROOT
BRANCH   3  12
HETATM   12  C3  AMR  1607      -0.608  38.265 228.454  1.00 20.00     0.289 C 
HETATM   13  N5  AMR  1607      -1.734  38.145 229.275  1.00 20.00    -0.155 N 
HETATM   14  C6  AMR  1607      -2.028  37.075 229.961  1.00 20.00     0.672 C 
ATOM     15  H5  AMR  1607      -2.365  38.944 229.342  1.00  0.00     0.187 HD
HETATM   16  N7  AMR  1607      -1.274  36.000 229.950  1.00 20.00    -0.235 N 
HETATM   17  N6  AMR  1607      -3.111  37.085 230.682  1.00 20.00    -0.235 N 
ATOM     18  H72 AMR  1607      -0.425  35.992 229.385  1.00  0.00     0.174 HD
ATOM     19  H71 AMR  1607      -1.504  35.163 230.487  1.00  0.00     0.174 HD
ATOM     20  H62 AMR  1607      -3.341  36.248 231.218  1.00  0.00     0.174 HD
ATOM     21  H61 AMR  1607      -3.697  37.920 230.690  1.00  0.00     0.174 HD
HETATM   22  O1  AMR  1607       0.158  37.323 228.218  1.00 20.00    -0.265 OA
ENDBRANCH   3  12
TORSDOF 1
ENDMDL
MODEL 9
REMARK VINA RESULT:      -5.3      3.218      6.712
REMARK  1 active torsions:
REMARK  status: ('A' for Active; 'I' for Inactive)
REMARK    1  A    between atoms: C1_3  and  C3_4 
REMARK       I    between atoms: C3_4  and  N5_5 
REMARK       I    between atoms: C6_7  and  N5_5 
REMARK       I    between atoms: C6_7  and  N7_8 
ROOT
HETATM    1  N1  AMR  1607      -0.664  41.845 225.793  1.00 20.00    -0.337 N 
ATOM      2  H1  AMR  1607      -0.519  42.388 224.940  1.00  0.00     0.167 HD
HETATM    3  C1  AMR  1607      -1.728  41.037 225.881  1.00 20.00     0.144 A 
HETATM    4  C2  AMR  1607      -1.939  40.287 227.046  1.00 20.00     0.150 A 
HETATM    5  N4  AMR  1607      -3.042  39.422 227.194  1.00 20.00    -0.080 NA
HETATM    6  N3  AMR  1607      -1.061  40.387 228.071  1.00 20.00    -0.329 N 
ATOM      7  H3  AMR  1607      -1.211  39.841 228.920  1.00  0.00     0.168 HD
HETATM    8  C4  AMR  1607       0.019  41.207 227.980  1.00 20.00     0.156 A 
HETATM    9  N2  AMR  1607       0.906  41.273 229.092  1.00 20.00    -0.079 NA
HETATM   10  C5  AMR  1607       0.218  41.959 226.803  1.00 20.00     0.145 A 
HETATM   11 CL1  AMR  1607       1.567  43.038 226.592  1.00 20.00    -0.061 Cl
ENDROOT
BRANCH   3  12
HETATM   12  C3  AMR  1607      -2.698  40.987 224.635  1.00 20.00     0.289 C 
HETATM   13  N5  AMR  1607      -4.023  41.380 224.852  1.00 20.00    -0.155 N 
HETATM   14  C6  AMR  1607      -4.972  41.274 223.963  1.00 20.00     0.672 C 
ATOM     15  H5  AMR  1607      -4.262  41.775 225.762  1.00  0.00     0.187 HD
HETATM   16  N7  AMR  1607      -4.767  40.769 222.768  1.00 20.00    -0.235 N 
HETATM   17  N6  AMR  1607      -6.164  41.684 224.284  1.00 20.00    -0.235 N 
ATOM     18  H72 AMR  1607      -3.832  40.447 222.516  1.00  0.00     0.174 HD
ATOM     19  H71 AMR  1607      -5.509  40.685 222.073  1.00  0.00     0.174 HD
ATOM     20  H62 AMR  1607      -6.906  41.601 223.588  1.00  0.00     0.174 HD
ATOM     21  H61 AMR  1607      -6.324  42.076 225.212  1.00  0.00     0.174 HD
HETATM   22  O1  AMR  1607      -2.281  40.601 223.537  1.00 20.00    -0.265 OA
ENDBRANCH   3  12
TORSDOF 1
ENDMDL
