MODEL 1
REMARK VINA RESULT:      -5.8      0.000      0.000
REMARK  5 active torsions:
REMARK  status: ('A' for Active; 'I' for Inactive)
REMARK    1  A    between atoms: CAJ_4  and  CAM_2 
REMARK    2  A    between atoms: CAH_5  and  CAJ_4 
REMARK    3  A    between atoms: CAH_5  and  CAI_6 
REMARK    4  A    between atoms: CAI_6  and  CAK_7 
REMARK    5  A    between atoms: CAK_7  and  N1_8 
ROOT
HETATM    1  N1  PNX  6259       2.973  34.126 237.414  1.00 20.00    -0.264 N 
HETATM    2  C6  PNX  6259       3.722  33.879 238.574  1.00 20.00     0.282 A 
HETATM    3  O6  PNX  6259       3.567  34.606 239.555  1.00 20.00    -0.265 OA
HETATM    4  C5  PNX  6259       4.612  32.811 238.627  1.00 20.00     0.149 A 
HETATM    5  N7  PNX  6259       5.422  32.316 239.561  1.00 20.00    -0.340 N 
HETATM    6  CAB PNX  6259       5.652  32.888 240.907  1.00 20.00     0.157 C 
HETATM    7  C8  PNX  6259       6.041  31.233 239.100  1.00 20.00     0.184 A 
HETATM    8  N9  PNX  6259       5.636  31.028 237.849  1.00 20.00    -0.336 N 
ATOM      9  H9  PNX  6259       5.944  30.269 237.241  1.00  0.00     0.168 HD
HETATM   10  C4  PNX  6259       4.761  31.976 237.523  1.00 20.00     0.145 A 
HETATM   11  N3  PNX  6259       4.021  32.211 236.356  1.00 20.00    -0.287 N 
HETATM   12  CAC PNX  6259       4.210  31.339 235.175  1.00 20.00     0.163 C 
HETATM   13  C2  PNX  6259       3.121  33.284 236.302  1.00 20.00     0.332 A 
HETATM   14  O2  PNX  6259       2.440  33.468 235.294  1.00 20.00    -0.246 OA
ENDROOT
BRANCH   1  15
HETATM   15  CAK PNX  6259       2.085  35.309 237.334  1.00 20.00     0.137 C 
BRANCH  15  16
HETATM   16  CAI PNX  6259       2.803  36.553 236.800  1.00 20.00     0.021 C 
BRANCH  16  17
HETATM   17  CAH PNX  6259       1.770  37.575 236.321  1.00 20.00     0.009 C 
BRANCH  17  18
HETATM   18  CAJ PNX  6259       0.648  37.831 237.330  1.00 20.00     0.078 C 
BRANCH  18  19
HETATM   19  CAM PNX  6259      -0.743  37.901 236.691  1.00 20.00     0.123 C 
HETATM   20  CAA PNX  6259      -1.148  36.819 235.690  1.00 20.00     0.091 C 
HETATM   21  OAD PNX  6259      -1.520  38.820 236.950  1.00 20.00    -0.298 OA
ENDBRANCH  18  19
ENDBRANCH  17  18
ENDBRANCH  16  17
ENDBRANCH  15  16
ENDBRANCH   1  15
TORSDOF 5
ENDMDL
MODEL 2
REMARK VINA RESULT:      -5.8      0.672      2.843
REMARK  5 active torsions:
REMARK  status: ('A' for Active; 'I' for Inactive)
REMARK    1  A    between atoms: CAJ_4  and  CAM_2 
REMARK    2  A    between atoms: CAH_5  and  CAJ_4 
REMARK    3  A    between atoms: CAH_5  and  CAI_6 
REMARK    4  A    between atoms: CAI_6  and  CAK_7 
REMARK    5  A    between atoms: CAK_7  and  N1_8 
ROOT
HETATM    1  N1  PNX  6259       3.217  34.382 237.817  1.00 20.00    -0.264 N 
HETATM    2  C6  PNX  6259       3.383  33.434 236.798  1.00 20.00     0.282 A 
HETATM    3  O6  PNX  6259       2.805  33.599 235.723  1.00 20.00    -0.265 OA
HETATM    4  C5  PNX  6259       4.209  32.330 236.986  1.00 20.00     0.149 A 
HETATM    5  N7  PNX  6259       4.581  31.301 236.227  1.00 20.00    -0.340 N 
HETATM    6  CAB PNX  6259       4.096  31.006 234.859  1.00 20.00     0.157 C 
HETATM    7  C8  PNX  6259       5.439  30.532 236.890  1.00 20.00     0.184 A 
HETATM    8  N9  PNX  6259       5.621  31.063 238.097  1.00 20.00    -0.336 N 
ATOM      9  H9  PNX  6259       6.227  30.687 238.826  1.00  0.00     0.168 HD
HETATM   10  C4  PNX  6259       4.882  32.165 238.194  1.00 20.00     0.145 A 
HETATM   11  N3  PNX  6259       4.724  33.103 239.222  1.00 20.00    -0.287 N 
HETATM   12  CAC PNX  6259       5.416  32.902 240.516  1.00 20.00     0.163 C 
HETATM   13  C2  PNX  6259       3.895  34.217 239.033  1.00 20.00     0.332 A 
HETATM   14  O2  PNX  6259       3.787  35.064 239.919  1.00 20.00    -0.246 OA
ENDROOT
BRANCH   1  15
HETATM   15  CAK PNX  6259       2.275  35.513 237.641  1.00 20.00     0.137 C 
BRANCH  15  16
HETATM   16  CAI PNX  6259       2.906  36.699 236.904  1.00 20.00     0.021 C 
BRANCH  16  17
HETATM   17  CAH PNX  6259       1.804  37.617 236.372  1.00 20.00     0.009 C 
BRANCH  17  18
HETATM   18  CAJ PNX  6259       0.663  37.844 237.367  1.00 20.00     0.078 C 
BRANCH  18  19
HETATM   19  CAM PNX  6259      -0.718  37.905 236.708  1.00 20.00     0.123 C 
HETATM   20  CAA PNX  6259      -1.079  36.857 235.655  1.00 20.00     0.091 C 
HETATM   21  OAD PNX  6259      -1.524  38.791 236.993  1.00 20.00    -0.298 OA
ENDBRANCH  18  19
ENDBRANCH  17  18
ENDBRANCH  16  17
ENDBRANCH  15  16
ENDBRANCH   1  15
TORSDOF 5
ENDMDL
MODEL 3
REMARK VINA RESULT:      -5.7     11.755     13.462
REMARK  5 active torsions:
REMARK  status: ('A' for Active; 'I' for Inactive)
REMARK    1  A    between atoms: CAJ_4  and  CAM_2 
REMARK    2  A    between atoms: CAH_5  and  CAJ_4 
REMARK    3  A    between atoms: CAH_5  and  CAI_6 
REMARK    4  A    between atoms: CAI_6  and  CAK_7 
REMARK    5  A    between atoms: CAK_7  and  N1_8 
ROOT
HETATM    1  N1  PNX  6259      -1.491  39.889 227.708  1.00 20.00    -0.264 N 
HETATM    2  C6  PNX  6259      -2.082  38.659 228.031  1.00 20.00     0.282 A 
HETATM    3  O6  PNX  6259      -1.562  37.951 228.893  1.00 20.00    -0.265 OA
HETATM    4  C5  PNX  6259      -3.256  38.253 227.404  1.00 20.00     0.149 A 
HETATM    5  N7  PNX  6259      -4.049  37.188 227.507  1.00 20.00    -0.340 N 
HETATM    6  CAB PNX  6259      -3.813  36.004 228.365  1.00 20.00     0.157 C 
HETATM    7  C8  PNX  6259      -5.090  37.314 226.688  1.00 20.00     0.184 A 
HETATM    8  N9  PNX  6259      -4.967  38.470 226.040  1.00 20.00    -0.336 N 
ATOM      9  H9  PNX  6259      -5.618  38.833 225.345  1.00  0.00     0.168 HD
HETATM   10  C4  PNX  6259      -3.854  39.072 226.451  1.00 20.00     0.145 A 
HETATM   11  N3  PNX  6259      -3.274  40.303 226.116  1.00 20.00    -0.287 N 
HETATM   12  CAC PNX  6259      -3.897  41.153 225.076  1.00 20.00     0.163 C 
HETATM   13  C2  PNX  6259      -2.093  40.716 226.748  1.00 20.00     0.332 A 
HETATM   14  O2  PNX  6259      -1.604  41.814 226.487  1.00 20.00    -0.246 OA
ENDROOT
BRANCH   1  15
HETATM   15  CAK PNX  6259      -0.200  40.283 228.320  1.00 20.00     0.137 C 
BRANCH  15  16
HETATM   16  CAI PNX  6259       1.002  39.606 227.653  1.00 20.00     0.021 C 
BRANCH  16  17
HETATM   17  CAH PNX  6259       1.852  40.658 226.940  1.00 20.00     0.009 C 
BRANCH  17  18
HETATM   18  CAJ PNX  6259       3.221  40.881 227.587  1.00 20.00     0.078 C 
BRANCH  18  19
HETATM   19  CAM PNX  6259       3.317  42.191 228.376  1.00 20.00     0.123 C 
HETATM   20  CAA PNX  6259       4.308  42.280 229.537  1.00 20.00     0.091 C 
HETATM   21  OAD PNX  6259       2.599  43.153 228.107  1.00 20.00    -0.298 OA
ENDBRANCH  18  19
ENDBRANCH  17  18
ENDBRANCH  16  17
ENDBRANCH  15  16
ENDBRANCH   1  15
TORSDOF 5
ENDMDL
MODEL 4
REMARK VINA RESULT:      -5.7      3.416      5.014
REMARK  5 active torsions:
REMARK  status: ('A' for Active; 'I' for Inactive)
REMARK    1  A    between atoms: CAJ_4  and  CAM_2 
REMARK    2  A    between atoms: CAH_5  and  CAJ_4 
REMARK    3  A    between atoms: CAH_5  and  CAI_6 
REMARK    4  A    between atoms: CAI_6  and  CAK_7 
REMARK    5  A    between atoms: CAK_7  and  N1_8 
ROOT
HETATM    1  N1  PNX  6259       2.017  35.497 235.807  1.00 20.00    -0.264 N 
HETATM    2  C6  PNX  6259       1.826  35.457 234.419  1.00 20.00     0.282 A 
HETATM    3  O6  PNX  6259       2.177  36.419 233.736  1.00 20.00    -0.265 OA
HETATM    4  C5  PNX  6259       1.268  34.335 233.814  1.00 20.00     0.149 A 
HETATM    5  N7  PNX  6259       0.990  33.993 232.557  1.00 20.00    -0.340 N 
HETATM    6  CAB PNX  6259       1.162  34.849 231.362  1.00 20.00     0.157 C 
HETATM    7  C8  PNX  6259       0.488  32.762 232.521  1.00 20.00     0.184 A 
HETATM    8  N9  PNX  6259       0.432  32.303 233.769  1.00 20.00    -0.336 N 
ATOM      9  H9  PNX  6259       0.088  31.384 234.049  1.00  0.00     0.168 HD
HETATM   10  C4  PNX  6259       0.900  33.240 234.590  1.00 20.00     0.145 A 
HETATM   11  N3  PNX  6259       1.083  33.266 235.979  1.00 20.00    -0.287 N 
HETATM   12  CAC PNX  6259       0.656  32.110 236.800  1.00 20.00     0.163 C 
HETATM   13  C2  PNX  6259       1.648  34.394 236.589  1.00 20.00     0.332 A 
HETATM   14  O2  PNX  6259       1.849  34.403 237.803  1.00 20.00    -0.246 OA
ENDROOT
BRANCH   1  15
HETATM   15  CAK PNX  6259       2.539  36.723 236.456  1.00 20.00     0.137 C 
BRANCH  15  16
HETATM   16  CAI PNX  6259       1.592  37.919 236.310  1.00 20.00     0.021 C 
BRANCH  16  17
HETATM   17  CAH PNX  6259       0.430  37.776 237.295  1.00 20.00     0.009 C 
BRANCH  17  18
HETATM   18  CAJ PNX  6259      -0.946  37.954 236.649  1.00 20.00     0.078 C 
BRANCH  18  19
HETATM   19  CAM PNX  6259      -1.428  36.716 235.886  1.00 20.00     0.123 C 
HETATM   20  CAA PNX  6259      -1.867  35.486 236.682  1.00 20.00     0.091 C 
HETATM   21  OAD PNX  6259      -1.443  36.688 234.657  1.00 20.00    -0.298 OA
ENDBRANCH  18  19
ENDBRANCH  17  18
ENDBRANCH  16  17
ENDBRANCH  15  16
ENDBRANCH   1  15
TORSDOF 5
ENDMDL
MODEL 5
REMARK VINA RESULT:      -5.7     11.136     13.431
REMARK  5 active torsions:
REMARK  status: ('A' for Active; 'I' for Inactive)
REMARK    1  A    between atoms: CAJ_4  and  CAM_2 
REMARK    2  A    between atoms: CAH_5  and  CAJ_4 
REMARK    3  A    between atoms: CAH_5  and  CAI_6 
REMARK    4  A    between atoms: CAI_6  and  CAK_7 
REMARK    5  A    between atoms: CAK_7  and  N1_8 
ROOT
HETATM    1  N1  PNX  6259      -1.806  39.202 228.049  1.00 20.00    -0.264 N 
HETATM    2  C6  PNX  6259      -2.750  39.583 227.084  1.00 20.00     0.282 A 
HETATM    3  O6  PNX  6259      -2.596  40.643 226.479  1.00 20.00    -0.265 OA
HETATM    4  C5  PNX  6259      -3.835  38.762 226.795  1.00 20.00     0.149 A 
HETATM    5  N7  PNX  6259      -4.856  38.829 225.941  1.00 20.00    -0.340 N 
HETATM    6  CAB PNX  6259      -5.159  39.958 225.032  1.00 20.00     0.157 C 
HETATM    7  C8  PNX  6259      -5.607  37.737 226.042  1.00 20.00     0.184 A 
HETATM    8  N9  PNX  6259      -5.074  36.954 226.978  1.00 20.00    -0.336 N 
ATOM      9  H9  PNX  6259      -5.437  36.048 227.273  1.00  0.00     0.168 HD
HETATM   10  C4  PNX  6259      -3.987  37.550 227.463  1.00 20.00     0.145 A 
HETATM   11  N3  PNX  6259      -3.054  37.157 228.431  1.00 20.00    -0.287 N 
HETATM   12  CAC PNX  6259      -3.241  35.884 229.163  1.00 20.00     0.163 C 
HETATM   13  C2  PNX  6259      -1.958  37.981 228.722  1.00 20.00     0.332 A 
HETATM   14  O2  PNX  6259      -1.114  37.620 229.541  1.00 20.00    -0.246 OA
ENDROOT
BRANCH   1  15
HETATM   15  CAK PNX  6259      -0.695  40.114 228.410  1.00 20.00     0.137 C 
BRANCH  15  16
HETATM   16  CAI PNX  6259       0.612  39.768 227.690  1.00 20.00     0.021 C 
BRANCH  16  17
HETATM   17  CAH PNX  6259       0.789  40.688 226.480  1.00 20.00     0.009 C 
BRANCH  17  18
HETATM   18  CAJ PNX  6259       2.135  41.417 226.457  1.00 20.00     0.078 C 
BRANCH  18  19
HETATM   19  CAM PNX  6259       2.299  42.431 227.594  1.00 20.00     0.123 C 
HETATM   20  CAA PNX  6259       3.406  42.206 228.626  1.00 20.00     0.091 C 
HETATM   21  OAD PNX  6259       1.547  43.399 227.701  1.00 20.00    -0.298 OA
ENDBRANCH  18  19
ENDBRANCH  17  18
ENDBRANCH  16  17
ENDBRANCH  15  16
ENDBRANCH   1  15
TORSDOF 5
ENDMDL
MODEL 6
REMARK VINA RESULT:      -5.5      1.811      3.678
REMARK  5 active torsions:
REMARK  status: ('A' for Active; 'I' for Inactive)
REMARK    1  A    between atoms: CAJ_4  and  CAM_2 
REMARK    2  A    between atoms: CAH_5  and  CAJ_4 
REMARK    3  A    between atoms: CAH_5  and  CAI_6 
REMARK    4  A    between atoms: CAI_6  and  CAK_7 
REMARK    5  A    between atoms: CAK_7  and  N1_8 
ROOT
HETATM    1  N1  PNX  6259       2.516  36.334 236.882  1.00 20.00    -0.264 N 
HETATM    2  C6  PNX  6259       2.396  35.157 236.128  1.00 20.00     0.282 A 
HETATM    3  O6  PNX  6259       1.741  35.175 235.086  1.00 20.00    -0.265 OA
HETATM    4  C5  PNX  6259       3.030  33.988 236.537  1.00 20.00     0.149 A 
HETATM    5  N7  PNX  6259       3.127  32.756 236.041  1.00 20.00    -0.340 N 
HETATM    6  CAB PNX  6259       2.448  32.248 234.827  1.00 20.00     0.157 C 
HETATM    7  C8  PNX  6259       3.904  32.011 236.822  1.00 20.00     0.184 A 
HETATM    8  N9  PNX  6259       4.310  32.765 237.840  1.00 20.00    -0.336 N 
ATOM      9  H9  PNX  6259       4.918  32.460 238.601  1.00  0.00     0.168 HD
HETATM   10  C4  PNX  6259       3.794  33.983 237.701  1.00 20.00     0.145 A 
HETATM   11  N3  PNX  6259       3.920  35.151 238.466  1.00 20.00    -0.287 N 
HETATM   12  CAC PNX  6259       4.705  35.128 239.721  1.00 20.00     0.163 C 
HETATM   13  C2  PNX  6259       3.285  36.330 238.054  1.00 20.00     0.332 A 
HETATM   14  O2  PNX  6259       3.428  37.367 238.700  1.00 20.00    -0.246 OA
ENDROOT
BRANCH   1  15
HETATM   15  CAK PNX  6259       1.776  37.555 236.485  1.00 20.00     0.137 C 
BRANCH  15  16
HETATM   16  CAI PNX  6259       0.543  37.811 237.359  1.00 20.00     0.021 C 
BRANCH  16  17
HETATM   17  CAH PNX  6259      -0.683  38.016 236.469  1.00 20.00     0.009 C 
BRANCH  17  18
HETATM   18  CAJ PNX  6259      -1.146  36.740 235.761  1.00 20.00     0.078 C 
BRANCH  18  19
HETATM   19  CAM PNX  6259      -1.827  35.736 236.696  1.00 20.00     0.123 C 
HETATM   20  CAA PNX  6259      -1.086  34.448 237.058  1.00 20.00     0.091 C 
HETATM   21  OAD PNX  6259      -2.958  35.937 237.136  1.00 20.00    -0.298 OA
ENDBRANCH  18  19
ENDBRANCH  17  18
ENDBRANCH  16  17
ENDBRANCH  15  16
ENDBRANCH   1  15
TORSDOF 5
ENDMDL
MODEL 7
REMARK VINA RESULT:      -5.4      3.065      6.011
REMARK  5 active torsions:
REMARK  status: ('A' for Active; 'I' for Inactive)
REMARK    1  A    between atoms: CAJ_4  and  CAM_2 
REMARK    2  A    between atoms: CAH_5  and  CAJ_4 
REMARK    3  A    between atoms: CAH_5  and  CAI_6 
REMARK    4  A    between atoms: CAI_6  and  CAK_7 
REMARK    5  A    between atoms: CAK_7  and  N1_8 
ROOT
HETATM    1  N1  PNX  6259       1.270  33.925 236.025  1.00 20.00    -0.264 N 
HETATM    2  C6  PNX  6259       0.836  34.552 234.849  1.00 20.00     0.282 A 
HETATM    3  O6  PNX  6259       1.647  34.768 233.948  1.00 20.00    -0.265 OA
HETATM    4  C5  PNX  6259      -0.500  34.905 234.688  1.00 20.00     0.149 A 
HETATM    5  N7  PNX  6259      -1.205  35.471 233.710  1.00 20.00    -0.340 N 
HETATM    6  CAB PNX  6259      -0.665  35.987 232.431  1.00 20.00     0.157 C 
HETATM    7  C8  PNX  6259      -2.486  35.549 234.058  1.00 20.00     0.184 A 
HETATM    8  N9  PNX  6259      -2.614  35.035 235.279  1.00 20.00    -0.336 N 
ATOM      9  H9  PNX  6259      -3.485  34.962 235.805  1.00  0.00     0.168 HD
HETATM   10  C4  PNX  6259      -1.417  34.631 235.699  1.00 20.00     0.145 A 
HETATM   11  N3  PNX  6259      -0.998  34.008 236.881  1.00 20.00    -0.287 N 
HETATM   12  CAC PNX  6259      -1.973  33.751 237.965  1.00 20.00     0.163 C 
HETATM   13  C2  PNX  6259       0.347  33.648 237.044  1.00 20.00     0.332 A 
HETATM   14  O2  PNX  6259       0.710  33.062 238.063  1.00 20.00    -0.246 OA
ENDROOT
BRANCH   1  15
HETATM   15  CAK PNX  6259       2.707  33.621 236.226  1.00 20.00     0.137 C 
BRANCH  15  16
HETATM   16  CAI PNX  6259       3.356  34.508 237.293  1.00 20.00     0.021 C 
BRANCH  16  17
HETATM   17  CAH PNX  6259       3.667  35.882 236.698  1.00 20.00     0.009 C 
BRANCH  17  18
HETATM   18  CAJ PNX  6259       2.906  37.028 237.370  1.00 20.00     0.078 C 
BRANCH  18  19
HETATM   19  CAM PNX  6259       1.740  37.560 236.531  1.00 20.00     0.123 C 
HETATM   20  CAA PNX  6259       0.393  37.801 237.213  1.00 20.00     0.091 C 
HETATM   21  OAD PNX  6259       1.864  37.772 235.326  1.00 20.00    -0.298 OA
ENDBRANCH  18  19
ENDBRANCH  17  18
ENDBRANCH  16  17
ENDBRANCH  15  16
ENDBRANCH   1  15
TORSDOF 5
ENDMDL
MODEL 8
REMARK VINA RESULT:      -5.4     10.138     13.043
REMARK  5 active torsions:
REMARK  status: ('A' for Active; 'I' for Inactive)
REMARK    1  A    between atoms: CAJ_4  and  CAM_2 
REMARK    2  A    between atoms: CAH_5  and  CAJ_4 
REMARK    3  A    between atoms: CAH_5  and  CAI_6 
REMARK    4  A    between atoms: CAI_6  and  CAK_7 
REMARK    5  A    between atoms: CAK_7  and  N1_8 
ROOT
HETATM    1  N1  PNX  6259      -2.481  39.293 227.744  1.00 20.00    -0.264 N 
HETATM    2  C6  PNX  6259      -1.375  39.950 228.303  1.00 20.00     0.282 A 
HETATM    3  O6  PNX  6259      -1.012  39.653 229.441  1.00 20.00    -0.265 OA
HETATM    4  C5  PNX  6259      -0.679  40.908 227.572  1.00 20.00     0.149 A 
HETATM    5  N7  PNX  6259       0.392  41.664 227.806  1.00 20.00    -0.340 N 
HETATM    6  CAB PNX  6259       1.154  41.729 229.074  1.00 20.00     0.157 C 
HETATM    7  C8  PNX  6259       0.672  42.401 226.735  1.00 20.00     0.184 A 
HETATM    8  N9  PNX  6259      -0.232  42.127 225.798  1.00 20.00    -0.336 N 
ATOM      9  H9  PNX  6259      -0.270  42.544 224.868  1.00  0.00     0.168 HD
HETATM   10  C4  PNX  6259      -1.078  41.217 226.275  1.00 20.00     0.145 A 
HETATM   11  N3  PNX  6259      -2.183  40.571 225.705  1.00 20.00    -0.287 N 
HETATM   12  CAC PNX  6259      -2.622  40.930 224.337  1.00 20.00     0.163 C 
HETATM   13  C2  PNX  6259      -2.883  39.603 226.437  1.00 20.00     0.332 A 
HETATM   14  O2  PNX  6259      -3.827  39.004 225.924  1.00 20.00    -0.246 OA
ENDROOT
BRANCH   1  15
HETATM   15  CAK PNX  6259      -3.267  38.331 228.553  1.00 20.00     0.137 C 
BRANCH  15  16
HETATM   16  CAI PNX  6259      -2.898  36.873 228.260  1.00 20.00     0.021 C 
BRANCH  16  17
HETATM   17  CAH PNX  6259      -2.021  36.329 229.390  1.00 20.00     0.009 C 
BRANCH  17  18
HETATM   18  CAJ PNX  6259      -1.006  35.281 228.927  1.00 20.00     0.078 C 
BRANCH  18  19
HETATM   19  CAM PNX  6259       0.421  35.823 228.809  1.00 20.00     0.123 C 
HETATM   20  CAA PNX  6259       1.547  35.101 229.550  1.00 20.00     0.091 C 
HETATM   21  OAD PNX  6259       0.669  36.835 228.153  1.00 20.00    -0.298 OA
ENDBRANCH  18  19
ENDBRANCH  17  18
ENDBRANCH  16  17
ENDBRANCH  15  16
ENDBRANCH   1  15
TORSDOF 5
ENDMDL
MODEL 9
REMARK VINA RESULT:      -5.4      3.868      6.479
REMARK  5 active torsions:
REMARK  status: ('A' for Active; 'I' for Inactive)
REMARK    1  A    between atoms: CAJ_4  and  CAM_2 
REMARK    2  A    between atoms: CAH_5  and  CAJ_4 
REMARK    3  A    between atoms: CAH_5  and  CAI_6 
REMARK    4  A    between atoms: CAI_6  and  CAK_7 
REMARK    5  A    between atoms: CAK_7  and  N1_8 
ROOT
HETATM    1  N1  PNX  6259      -0.595  35.656 235.260  1.00 20.00    -0.264 N 
HETATM    2  C6  PNX  6259      -0.929  35.984 233.938  1.00 20.00     0.282 A 
HETATM    3  O6  PNX  6259      -1.684  36.932 233.726  1.00 20.00    -0.265 OA
HETATM    4  C5  PNX  6259      -0.394  35.263 232.875  1.00 20.00     0.149 A 
HETATM    5  N7  PNX  6259      -0.493  35.342 231.549  1.00 20.00    -0.340 N 
HETATM    6  CAB PNX  6259      -1.351  36.283 230.794  1.00 20.00     0.157 C 
HETATM    7  C8  PNX  6259       0.271  34.415 230.979  1.00 20.00     0.184 A 
HETATM    8  N9  PNX  6259       0.867  33.720 231.945  1.00 20.00    -0.336 N 
ATOM      9  H9  PNX  6259       1.512  32.942 231.806  1.00  0.00     0.168 HD
HETATM   10  C4  PNX  6259       0.482  34.210 233.121  1.00 20.00     0.145 A 
HETATM   11  N3  PNX  6259       0.823  33.869 234.437  1.00 20.00    -0.287 N 
HETATM   12  CAC PNX  6259       1.728  32.726 234.692  1.00 20.00     0.163 C 
HETATM   13  C2  PNX  6259       0.288  34.596 235.509  1.00 20.00     0.332 A 
HETATM   14  O2  PNX  6259       0.618  34.327 236.664  1.00 20.00    -0.246 OA
ENDROOT
BRANCH   1  15
HETATM   15  CAK PNX  6259      -1.227  36.375 236.392  1.00 20.00     0.137 C 
BRANCH  15  16
HETATM   16  CAI PNX  6259      -0.658  37.784 236.589  1.00 20.00     0.021 C 
BRANCH  16  17
HETATM   17  CAH PNX  6259       0.675  37.698 237.334  1.00 20.00     0.009 C 
BRANCH  17  18
HETATM   18  CAJ PNX  6259       1.897  37.809 236.418  1.00 20.00     0.078 C 
BRANCH  18  19
HETATM   19  CAM PNX  6259       3.096  36.985 236.898  1.00 20.00     0.123 C 
HETATM   20  CAA PNX  6259       3.927  37.509 238.070  1.00 20.00     0.091 C 
HETATM   21  OAD PNX  6259       3.411  35.933 236.345  1.00 20.00    -0.298 OA
ENDBRANCH  18  19
ENDBRANCH  17  18
ENDBRANCH  16  17
ENDBRANCH  15  16
ENDBRANCH   1  15
TORSDOF 5
ENDMDL
