MODEL 1
REMARK VINA RESULT:      -6.6      0.000      0.000
REMARK  13 active torsions:
REMARK  status: ('A' for Active; 'I' for Inactive)
REMARK    1  A    between atoms: C10_33  and  C12_2 
REMARK    2  A    between atoms: C19_15  and  N2_36 
REMARK    3  A    between atoms: C3_27  and  O3_23 
REMARK    4  A    between atoms: C1_25  and  C2_26 
REMARK    5  A    between atoms: C2_26  and  C3_27 
REMARK    6  A    between atoms: C3_27  and  C4_28 
REMARK    7  A    between atoms: C4_28  and  C5_29 
REMARK    8  A    between atoms: C5_29  and  O5_43 
REMARK    9  A    between atoms: C5_29  and  C6_30 
REMARK   10  A    between atoms: C6_30  and  C7_31 
REMARK   11  A    between atoms: C7_31  and  N1_32 
REMARK   12  A    between atoms: C11_34  and  C18_35 
REMARK       I    between atoms: C18_35  and  N2_36 
REMARK   13  A    between atoms: C9_39  and  C91_40 
ROOT
HETATM    1  C83 117   166       1.666  35.258 228.766  1.00 20.00     0.043 A 
HETATM    2  C82 117   166       0.639  35.217 229.748  1.00 20.00     0.017 A 
HETATM    3  C81 117   166      -0.114  34.038 229.926  1.00 20.00    -0.008 A 
HETATM    4  C86 117   166       0.185  32.920 229.099  1.00 20.00     0.017 A 
HETATM    5  C85 117   166       1.186  32.957 228.139  1.00 20.00     0.043 A 
HETATM    6  C84 117   166       1.927  34.117 227.967  1.00 20.00     0.116 A 
HETATM    7  F1  117   166       2.900  34.143 227.019  1.00 20.00    -0.206 F 
HETATM    8  C8  117   166      -1.170  33.885 230.870  1.00 20.00     0.057 A 
HETATM    9  N1  117   166      -1.065  33.070 232.035  1.00 20.00    -0.347 N 
HETATM   10  C10 117   166      -2.474  34.481 230.793  1.00 20.00     0.020 A 
HETATM   11  C11 117   166      -3.194  33.995 231.927  1.00 20.00     0.068 A 
HETATM   12  C9  117   166      -2.324  33.155 232.657  1.00 20.00     0.032 A 
ENDROOT
BRANCH   9  13
HETATM   13  C7  117   166       0.120  32.276 232.504  1.00 20.00     0.132 C 
BRANCH  13  14
HETATM   14  C6  117   166       1.259  33.178 233.023  1.00 20.00     0.052 C 
BRANCH  14  15
HETATM   15  C5  117   166       0.782  34.073 234.174  1.00 20.00     0.122 C 
BRANCH  15  16
HETATM   16  C4  117   166       1.017  35.543 233.861  1.00 20.00     0.064 C 
BRANCH  16  17
HETATM   17  C3  117   166       1.119  36.337 235.141  1.00 20.00     0.130 C 
BRANCH  17  18
HETATM   18  C2  117   166      -0.253  36.789 235.663  1.00 20.00     0.144 C 
BRANCH  18  19
HETATM   19  C1  117   166      -0.165  37.830 236.779  1.00 20.00     0.175 C 
HETATM   20  O1A 117   166      -1.216  38.663 236.778  1.00 20.00    -0.648 OA
HETATM   21  O1B 117   166       0.752  37.909 237.582  1.00 20.00    -0.648 OA
ENDBRANCH  18  19
ENDBRANCH  17  18
BRANCH  17  22
HETATM   22  O3  117   166       1.915  37.475 234.855  1.00 20.00    -0.395 OA
ATOM     23  H3  117   166       2.407  37.326 234.057  1.00  0.00     0.210 HD
ENDBRANCH  17  22
ENDBRANCH  16  17
ENDBRANCH  15  16
BRANCH  15  24
HETATM   24  O5  117   166       1.486  33.769 235.349  1.00 20.00    -0.395 OA
ATOM     25  H5  117   166       1.283  34.440 235.989  1.00  0.00     0.210 HD
ENDBRANCH  15  24
ENDBRANCH  14  15
ENDBRANCH  13  14
ENDBRANCH   9  13
BRANCH  12  26
HETATM   26  C91 117   166      -2.615  32.375 233.974  1.00 20.00     0.028 C 
HETATM   27  C93 117   166      -3.250  33.230 235.077  1.00 20.00     0.016 C 
HETATM   28  C92 117   166      -3.490  31.142 233.718  1.00 20.00     0.016 C 
ENDBRANCH  12  26
BRANCH  10  29
HETATM   29  C12 117   166      -2.912  35.364 229.773  1.00 20.00    -0.023 A 
HETATM   30  C17 117   166      -2.857  36.766 229.920  1.00 20.00     0.012 A 
HETATM   31  C16 117   166      -3.332  37.614 228.910  1.00 20.00     0.001 A 
HETATM   32  C15 117   166      -3.877  37.075 227.732  1.00 20.00     0.000 A 
HETATM   33  C14 117   166      -3.949  35.684 227.560  1.00 20.00     0.001 A 
HETATM   34  C13 117   166      -3.475  34.833 228.568  1.00 20.00     0.012 A 
ENDBRANCH  10  29
BRANCH  11  35
HETATM   35  C18 117   166      -4.648  34.267 232.357  1.00 20.00     0.259 C 
HETATM   36  N2  117   166      -5.641  33.235 232.208  1.00 20.00    -0.323 N 
ATOM     37  H2  117   166      -5.314  32.346 231.831  1.00  0.00     0.169 HD
HETATM   38  O18 117   166      -4.923  35.378 232.806  1.00 20.00    -0.267 OA
BRANCH  36  39
HETATM   39  C19 117   166      -6.888  33.305 232.494  1.00 20.00     0.035 A 
HETATM   40  C20 117   166      -7.845  33.518 231.480  1.00 20.00     0.029 A 
HETATM   41  C21 117   166      -9.203  33.616 231.804  1.00 20.00     0.002 A 
HETATM   42  C22 117   166      -9.614  33.505 233.138  1.00 20.00     0.000 A 
HETATM   43  C23 117   166      -8.676  33.289 234.150  1.00 20.00     0.002 A 
HETATM   44  C24 117   166      -7.321  33.188 233.832  1.00 20.00     0.029 A 
ENDBRANCH  36  39
ENDBRANCH  11  35
TORSDOF 13
ENDMDL
MODEL 2
REMARK VINA RESULT:      -6.5      2.999      6.018
REMARK  13 active torsions:
REMARK  status: ('A' for Active; 'I' for Inactive)
REMARK    1  A    between atoms: C10_33  and  C12_2 
REMARK    2  A    between atoms: C19_15  and  N2_36 
REMARK    3  A    between atoms: C3_27  and  O3_23 
REMARK    4  A    between atoms: C1_25  and  C2_26 
REMARK    5  A    between atoms: C2_26  and  C3_27 
REMARK    6  A    between atoms: C3_27  and  C4_28 
REMARK    7  A    between atoms: C4_28  and  C5_29 
REMARK    8  A    between atoms: C5_29  and  O5_43 
REMARK    9  A    between atoms: C5_29  and  C6_30 
REMARK   10  A    between atoms: C6_30  and  C7_31 
REMARK   11  A    between atoms: C7_31  and  N1_32 
REMARK   12  A    between atoms: C11_34  and  C18_35 
REMARK       I    between atoms: C18_35  and  N2_36 
REMARK   13  A    between atoms: C9_39  and  C91_40 
ROOT
HETATM    1  C83 117   166      -2.417  32.703 236.924  1.00 20.00     0.043 A 
HETATM    2  C82 117   166      -2.224  32.637 235.518  1.00 20.00     0.017 A 
HETATM    3  C81 117   166      -1.985  33.818 234.786  1.00 20.00    -0.008 A 
HETATM    4  C86 117   166      -1.948  35.050 235.495  1.00 20.00     0.017 A 
HETATM    5  C85 117   166      -2.136  35.118 236.869  1.00 20.00     0.043 A 
HETATM    6  C84 117   166      -2.370  33.955 237.587  1.00 20.00     0.116 A 
HETATM    7  F1  117   166      -2.559  34.036 238.930  1.00 20.00    -0.206 F 
HETATM    8  C8  117   166      -1.788  33.873 233.376  1.00 20.00     0.057 A 
HETATM    9  N1  117   166      -0.529  34.166 232.773  1.00 20.00    -0.347 N 
HETATM   10  C10 117   166      -2.791  33.678 232.368  1.00 20.00     0.020 A 
HETATM   11  C11 117   166      -2.134  33.884 231.116  1.00 20.00     0.068 A 
HETATM   12  C9  117   166      -0.777  34.171 231.389  1.00 20.00     0.032 A 
ENDROOT
BRANCH   9  13
HETATM   13  C7  117   166       0.783  34.429 233.455  1.00 20.00     0.132 C 
BRANCH  13  14
HETATM   14  C6  117   166       1.093  35.937 233.566  1.00 20.00     0.052 C 
BRANCH  14  15
HETATM   15  C5  117   166       2.146  36.211 234.647  1.00 20.00     0.122 C 
BRANCH  15  16
HETATM   16  C4  117   166       1.958  35.292 235.844  1.00 20.00     0.064 C 
BRANCH  16  17
HETATM   17  C3  117   166       3.280  35.062 236.535  1.00 20.00     0.130 C 
BRANCH  17  18
HETATM   18  C2  117   166       3.339  35.715 237.925  1.00 20.00     0.144 C 
BRANCH  18  19
HETATM   19  C1  117   166       4.259  36.934 237.984  1.00 20.00     0.175 C 
HETATM   20  O1A 117   166       3.703  38.015 237.418  1.00 20.00    -0.648 OA
HETATM   21  O1B 117   166       5.374  36.936 238.483  1.00 20.00    -0.648 OA
ENDBRANCH  18  19
ENDBRANCH  17  18
BRANCH  17  22
HETATM   22  O3  117   166       4.281  35.627 235.704  1.00 20.00    -0.395 OA
ATOM     23  H3  117   166       3.875  36.193 235.058  1.00  0.00     0.210 HD
ENDBRANCH  17  22
ENDBRANCH  16  17
ENDBRANCH  15  16
BRANCH  15  24
HETATM   24  O5  117   166       2.038  37.534 235.104  1.00 20.00    -0.395 OA
ATOM     25  H5  117   166       1.333  37.562 235.741  1.00  0.00     0.210 HD
ENDBRANCH  15  24
ENDBRANCH  14  15
ENDBRANCH  13  14
ENDBRANCH   9  13
BRANCH  12  26
HETATM   26  C91 117   166       0.368  34.474 230.377  1.00 20.00     0.028 C 
HETATM   27  C93 117   166       0.800  33.260 229.544  1.00 20.00     0.016 C 
HETATM   28  C92 117   166       0.001  35.629 229.439  1.00 20.00     0.016 C 
ENDBRANCH  12  26
BRANCH  10  29
HETATM   29  C12 117   166      -4.149  33.353 232.616  1.00 20.00    -0.023 A 
HETATM   30  C17 117   166      -4.645  32.040 232.470  1.00 20.00     0.012 A 
HETATM   31  C16 117   166      -5.999  31.754 232.685  1.00 20.00     0.001 A 
HETATM   32  C15 117   166      -6.890  32.780 233.048  1.00 20.00     0.000 A 
HETATM   33  C14 117   166      -6.426  34.096 233.197  1.00 20.00     0.001 A 
HETATM   34  C13 117   166      -5.071  34.385 232.981  1.00 20.00     0.012 A 
ENDBRANCH  10  29
BRANCH  11  35
HETATM   35  C18 117   166      -2.706  33.836 229.687  1.00 20.00     0.259 C 
HETATM   36  N2  117   166      -3.490  34.939 229.195  1.00 20.00    -0.323 N 
ATOM     37  H2  117   166      -3.613  35.725 229.833  1.00  0.00     0.169 HD
HETATM   38  O18 117   166      -2.486  32.836 229.006  1.00 20.00    -0.267 OA
BRANCH  36  39
HETATM   39  C19 117   166      -4.052  35.047 228.049  1.00 20.00     0.035 A 
HETATM   40  C20 117   166      -3.536  35.931 227.078  1.00 20.00     0.029 A 
HETATM   41  C21 117   166      -4.170  36.060 225.837  1.00 20.00     0.002 A 
HETATM   42  C22 117   166      -5.319  35.313 225.557  1.00 20.00     0.000 A 
HETATM   43  C23 117   166      -5.837  34.431 226.509  1.00 20.00     0.002 A 
HETATM   44  C24 117   166      -5.208  34.297 227.747  1.00 20.00     0.029 A 
ENDBRANCH  36  39
ENDBRANCH  11  35
TORSDOF 13
ENDMDL
MODEL 3
REMARK VINA RESULT:      -6.4      3.780      8.600
REMARK  13 active torsions:
REMARK  status: ('A' for Active; 'I' for Inactive)
REMARK    1  A    between atoms: C10_33  and  C12_2 
REMARK    2  A    between atoms: C19_15  and  N2_36 
REMARK    3  A    between atoms: C3_27  and  O3_23 
REMARK    4  A    between atoms: C1_25  and  C2_26 
REMARK    5  A    between atoms: C2_26  and  C3_27 
REMARK    6  A    between atoms: C3_27  and  C4_28 
REMARK    7  A    between atoms: C4_28  and  C5_29 
REMARK    8  A    between atoms: C5_29  and  O5_43 
REMARK    9  A    between atoms: C5_29  and  C6_30 
REMARK   10  A    between atoms: C6_30  and  C7_31 
REMARK   11  A    between atoms: C7_31  and  N1_32 
REMARK   12  A    between atoms: C11_34  and  C18_35 
REMARK       I    between atoms: C18_35  and  N2_36 
REMARK   13  A    between atoms: C9_39  and  C91_40 
ROOT
HETATM    1  C83 117   166      -6.319  33.334 233.982  1.00 20.00     0.043 A 
HETATM    2  C82 117   166      -5.031  33.909 234.155  1.00 20.00     0.017 A 
HETATM    3  C81 117   166      -3.909  33.313 233.545  1.00 20.00    -0.008 A 
HETATM    4  C86 117   166      -4.112  32.138 232.769  1.00 20.00     0.017 A 
HETATM    5  C85 117   166      -5.369  31.574 232.597  1.00 20.00     0.043 A 
HETATM    6  C84 117   166      -6.472  32.163 233.198  1.00 20.00     0.116 A 
HETATM    7  F1  117   166      -7.695  31.597 233.028  1.00 20.00    -0.206 F 
HETATM    8  C8  117   166      -2.572  33.795 233.657  1.00 20.00     0.057 A 
HETATM    9  N1  117   166      -1.867  34.403 232.576  1.00 20.00    -0.347 N 
HETATM   10  C10 117   166      -1.738  33.724 234.822  1.00 20.00     0.020 A 
HETATM   11  C11 117   166      -0.479  34.280 234.437  1.00 20.00     0.068 A 
HETATM   12  C9  117   166      -0.586  34.683 233.086  1.00 20.00     0.032 A 
ENDROOT
BRANCH   9  13
HETATM   13  C7  117   166      -2.365  34.679 231.187  1.00 20.00     0.132 C 
BRANCH  13  14
HETATM   14  C6  117   166      -2.701  36.170 230.972  1.00 20.00     0.052 C 
BRANCH  14  15
HETATM   15  C5  117   166      -2.228  36.655 229.595  1.00 20.00     0.122 C 
BRANCH  15  16
HETATM   16  C4  117   166      -1.420  37.939 229.712  1.00 20.00     0.064 C 
BRANCH  16  17
HETATM   17  C3  117   166      -1.668  38.819 228.511  1.00 20.00     0.130 C 
BRANCH  17  18
HETATM   18  C2  117   166      -0.447  39.680 228.151  1.00 20.00     0.144 C 
BRANCH  18  19
HETATM   19  C1  117   166      -0.703  41.181 228.280  1.00 20.00     0.175 C 
HETATM   20  O1A 117   166      -1.302  41.687 227.193  1.00 20.00    -0.648 OA
HETATM   21  O1B 117   166      -0.400  41.854 229.253  1.00 20.00    -0.648 OA
ENDBRANCH  18  19
ENDBRANCH  17  18
BRANCH  17  22
HETATM   22  O3  117   166      -2.761  39.662 228.839  1.00 20.00    -0.395 OA
ATOM     23  H3  117   166      -3.462  39.531 228.211  1.00  0.00     0.210 HD
ENDBRANCH  17  22
ENDBRANCH  16  17
ENDBRANCH  15  16
BRANCH  15  24
HETATM   24  O5  117   166      -3.332  36.920 228.770  1.00 20.00    -0.395 OA
ATOM     25  H5  117   166      -3.099  37.642 228.200  1.00  0.00     0.210 HD
ENDBRANCH  15  24
ENDBRANCH  14  15
ENDBRANCH  13  14
ENDBRANCH   9  13
BRANCH  12  26
HETATM   26  C91 117   166       0.499  35.346 232.187  1.00 20.00     0.028 C 
HETATM   27  C93 117   166       1.571  36.116 232.970  1.00 20.00     0.016 C 
HETATM   28  C92 117   166       1.177  34.321 231.271  1.00 20.00     0.016 C 
ENDBRANCH  12  26
BRANCH  10  29
HETATM   29  C12 117   166      -2.128  33.196 236.079  1.00 20.00    -0.023 A 
HETATM   30  C17 117   166      -2.494  31.843 236.244  1.00 20.00     0.012 A 
HETATM   31  C16 117   166      -2.912  31.358 237.490  1.00 20.00     0.001 A 
HETATM   32  C15 117   166      -2.977  32.219 238.600  1.00 20.00     0.000 A 
HETATM   33  C14 117   166      -2.623  33.571 238.465  1.00 20.00     0.001 A 
HETATM   34  C13 117   166      -2.205  34.059 237.219  1.00 20.00     0.012 A 
ENDBRANCH  10  29
BRANCH  11  35
HETATM   35  C18 117   166       0.814  34.446 235.257  1.00 20.00     0.259 C 
HETATM   36  N2  117   166       0.936  35.542 236.183  1.00 20.00    -0.323 N 
ATOM     37  H2  117   166       0.127  36.157 236.262  1.00  0.00     0.169 HD
HETATM   38  O18 117   166       1.721  33.635 235.080  1.00 20.00    -0.267 OA
BRANCH  36  39
HETATM   39  C19 117   166       1.944  35.832 236.919  1.00 20.00     0.035 A 
HETATM   40  C20 117   166       2.369  34.949 237.933  1.00 20.00     0.029 A 
HETATM   41  C21 117   166       3.457  35.284 238.748  1.00 20.00     0.002 A 
HETATM   42  C22 117   166       4.123  36.501 238.559  1.00 20.00     0.000 A 
HETATM   43  C23 117   166       3.713  37.382 237.556  1.00 20.00     0.002 A 
HETATM   44  C24 117   166       2.631  37.051 236.739  1.00 20.00     0.029 A 
ENDBRANCH  36  39
ENDBRANCH  11  35
TORSDOF 13
ENDMDL
MODEL 4
REMARK VINA RESULT:      -6.4      5.349      8.783
REMARK  13 active torsions:
REMARK  status: ('A' for Active; 'I' for Inactive)
REMARK    1  A    between atoms: C10_33  and  C12_2 
REMARK    2  A    between atoms: C19_15  and  N2_36 
REMARK    3  A    between atoms: C3_27  and  O3_23 
REMARK    4  A    between atoms: C1_25  and  C2_26 
REMARK    5  A    between atoms: C2_26  and  C3_27 
REMARK    6  A    between atoms: C3_27  and  C4_28 
REMARK    7  A    between atoms: C4_28  and  C5_29 
REMARK    8  A    between atoms: C5_29  and  O5_43 
REMARK    9  A    between atoms: C5_29  and  C6_30 
REMARK   10  A    between atoms: C6_30  and  C7_31 
REMARK   11  A    between atoms: C7_31  and  N1_32 
REMARK   12  A    between atoms: C11_34  and  C18_35 
REMARK       I    between atoms: C18_35  and  N2_36 
REMARK   13  A    between atoms: C9_39  and  C91_40 
ROOT
HETATM    1  C83 117   166      -7.227  37.364 225.537  1.00 20.00     0.043 A 
HETATM    2  C82 117   166      -6.228  36.539 226.120  1.00 20.00     0.017 A 
HETATM    3  C81 117   166      -4.874  36.926 226.057  1.00 20.00    -0.008 A 
HETATM    4  C86 117   166      -4.555  38.146 225.400  1.00 20.00     0.017 A 
HETATM    5  C85 117   166      -5.528  38.955 224.830  1.00 20.00     0.043 A 
HETATM    6  C84 117   166      -6.860  38.572 224.893  1.00 20.00     0.116 A 
HETATM    7  F1  117   166      -7.802  39.369 224.325  1.00 20.00    -0.206 F 
HETATM    8  C8  117   166      -3.789  36.175 226.597  1.00 20.00     0.057 A 
HETATM    9  N1  117   166      -3.050  36.585 227.746  1.00 20.00    -0.347 N 
HETATM   10  C10 117   166      -3.264  34.945 226.077  1.00 20.00     0.020 A 
HETATM   11  C11 117   166      -2.157  34.607 226.914  1.00 20.00     0.068 A 
HETATM   12  C9  117   166      -2.054  35.605 227.909  1.00 20.00     0.032 A 
ENDROOT
BRANCH   9  13
HETATM   13  C7  117   166      -3.265  37.801 228.598  1.00 20.00     0.132 C 
BRANCH  13  14
HETATM   14  C6  117   166      -2.844  39.101 227.880  1.00 20.00     0.052 C 
BRANCH  14  15
HETATM   15  C5  117   166      -1.682  39.789 228.609  1.00 20.00     0.122 C 
BRANCH  15  16
HETATM   16  C4  117   166      -0.469  39.927 227.702  1.00 20.00     0.064 C 
BRANCH  16  17
HETATM   17  C3  117   166       0.078  41.332 227.776  1.00 20.00     0.130 C 
BRANCH  17  18
HETATM   18  C2  117   166       1.614  41.367 227.769  1.00 20.00     0.144 C 
BRANCH  18  19
HETATM   19  C1  117   166       2.190  42.772 227.937  1.00 20.00     0.175 C 
HETATM   20  O1A 117   166       3.466  42.751 228.347  1.00 20.00    -0.648 OA
HETATM   21  O1B 117   166       1.570  43.804 227.729  1.00 20.00    -0.648 OA
ENDBRANCH  18  19
ENDBRANCH  17  18
BRANCH  17  22
HETATM   22  O3  117   166      -0.402  41.896 228.986  1.00 20.00    -0.395 OA
ATOM     23  H3  117   166      -1.193  42.392 228.812  1.00  0.00     0.210 HD
ENDBRANCH  17  22
ENDBRANCH  16  17
ENDBRANCH  15  16
BRANCH  15  24
HETATM   24  O5  117   166      -1.296  39.033 229.726  1.00 20.00    -0.395 OA
ATOM     25  H5  117   166      -1.322  38.117 229.478  1.00  0.00     0.210 HD
ENDBRANCH  15  24
ENDBRANCH  14  15
ENDBRANCH  13  14
ENDBRANCH   9  13
BRANCH  12  26
HETATM   26  C91 117   166      -1.017  35.710 229.067  1.00 20.00     0.028 C 
HETATM   27  C93 117   166      -1.017  34.504 230.014  1.00 20.00     0.016 C 
HETATM   28  C92 117   166       0.402  35.939 228.535  1.00 20.00     0.016 C 
ENDBRANCH  12  26
BRANCH  10  29
HETATM   29  C12 117   166      -3.774  34.247 224.952  1.00 20.00    -0.023 A 
HETATM   30  C17 117   166      -3.448  34.613 223.630  1.00 20.00     0.012 A 
HETATM   31  C16 117   166      -3.996  33.928 222.537  1.00 20.00     0.001 A 
HETATM   32  C15 117   166      -4.889  32.863 222.746  1.00 20.00     0.000 A 
HETATM   33  C14 117   166      -5.236  32.479 224.051  1.00 20.00     0.001 A 
HETATM   34  C13 117   166      -4.689  33.162 225.146  1.00 20.00     0.012 A 
ENDBRANCH  10  29
BRANCH  11  35
HETATM   35  C18 117   166      -1.190  33.411 226.828  1.00 20.00     0.259 C 
HETATM   36  N2  117   166       0.003  33.514 226.026  1.00 20.00    -0.323 N 
ATOM     37  H2  117   166       0.156  34.408 225.560  1.00  0.00     0.169 HD
HETATM   38  O18 117   166      -1.478  32.386 227.442  1.00 20.00    -0.267 OA
BRANCH  36  39
HETATM   39  C19 117   166       0.892  32.613 225.832  1.00 20.00     0.035 A 
HETATM   40  C20 117   166       1.871  32.350 226.813  1.00 20.00     0.029 A 
HETATM   41  C21 117   166       2.854  31.379 226.583  1.00 20.00     0.002 A 
HETATM   42  C22 117   166       2.868  30.670 225.377  1.00 20.00     0.000 A 
HETATM   43  C23 117   166       1.901  30.919 224.400  1.00 20.00     0.002 A 
HETATM   44  C24 117   166       0.918  31.884 224.624  1.00 20.00     0.029 A 
ENDBRANCH  36  39
ENDBRANCH  11  35
TORSDOF 13
ENDMDL
MODEL 5
REMARK VINA RESULT:      -6.3      3.081      4.852
REMARK  13 active torsions:
REMARK  status: ('A' for Active; 'I' for Inactive)
REMARK    1  A    between atoms: C10_33  and  C12_2 
REMARK    2  A    between atoms: C19_15  and  N2_36 
REMARK    3  A    between atoms: C3_27  and  O3_23 
REMARK    4  A    between atoms: C1_25  and  C2_26 
REMARK    5  A    between atoms: C2_26  and  C3_27 
REMARK    6  A    between atoms: C3_27  and  C4_28 
REMARK    7  A    between atoms: C4_28  and  C5_29 
REMARK    8  A    between atoms: C5_29  and  O5_43 
REMARK    9  A    between atoms: C5_29  and  C6_30 
REMARK   10  A    between atoms: C6_30  and  C7_31 
REMARK   11  A    between atoms: C7_31  and  N1_32 
REMARK   12  A    between atoms: C11_34  and  C18_35 
REMARK       I    between atoms: C18_35  and  N2_36 
REMARK   13  A    between atoms: C9_39  and  C91_40 
ROOT
HETATM    1  C83 117   166      -0.603  35.537 229.233  1.00 20.00     0.043 A 
HETATM    2  C82 117   166      -1.115  35.155 230.503  1.00 20.00     0.017 A 
HETATM    3  C81 117   166      -0.235  34.704 231.507  1.00 20.00    -0.008 A 
HETATM    4  C86 117   166       1.154  34.645 231.205  1.00 20.00     0.017 A 
HETATM    5  C85 117   166       1.657  35.018 229.967  1.00 20.00     0.043 A 
HETATM    6  C84 117   166       0.789  35.463 228.980  1.00 20.00     0.116 A 
HETATM    7  F1  117   166       1.294  35.818 227.770  1.00 20.00    -0.206 F 
HETATM    8  C8  117   166      -0.635  34.287 232.810  1.00 20.00     0.057 A 
HETATM    9  N1  117   166      -0.361  35.039 233.990  1.00 20.00    -0.347 N 
HETATM   10  C10 117   166      -1.328  33.074 233.139  1.00 20.00     0.020 A 
HETATM   11  C11 117   166      -1.458  33.071 234.562  1.00 20.00     0.068 A 
HETATM   12  C9  117   166      -0.873  34.263 235.046  1.00 20.00     0.032 A 
ENDROOT
BRANCH   9  13
HETATM   13  C7  117   166       0.334  36.364 234.101  1.00 20.00     0.132 C 
BRANCH  13  14
HETATM   14  C6  117   166       1.687  36.255 234.836  1.00 20.00     0.052 C 
BRANCH  14  15
HETATM   15  C5  117   166       1.906  37.444 235.780  1.00 20.00     0.122 C 
BRANCH  15  16
HETATM   16  C4  117   166       2.300  36.975 237.173  1.00 20.00     0.064 C 
BRANCH  16  17
HETATM   17  C3  117   166       3.764  36.611 237.204  1.00 20.00     0.130 C 
BRANCH  17  18
HETATM   18  C2  117   166       4.135  35.770 238.435  1.00 20.00     0.144 C 
BRANCH  18  19
HETATM   19  C1  117   166       3.542  34.361 238.409  1.00 20.00     0.175 C 
HETATM   20  O1A 117   166       2.940  34.044 239.564  1.00 20.00    -0.648 OA
HETATM   21  O1B 117   166       3.605  33.601 237.455  1.00 20.00    -0.648 OA
ENDBRANCH  18  19
ENDBRANCH  17  18
BRANCH  17  22
HETATM   22  O3  117   166       4.489  37.830 237.228  1.00 20.00    -0.395 OA
ATOM     23  H3  117   166       5.421  37.645 237.194  1.00  0.00     0.210 HD
ENDBRANCH  17  22
ENDBRANCH  16  17
ENDBRANCH  15  16
BRANCH  15  24
HETATM   24  O5  117   166       0.724  38.191 235.901  1.00 20.00    -0.395 OA
ATOM     25  H5  117   166       0.021  37.684 235.512  1.00  0.00     0.210 HD
ENDBRANCH  15  24
ENDBRANCH  14  15
ENDBRANCH  13  14
ENDBRANCH   9  13
BRANCH  12  26
HETATM   26  C91 117   166      -0.750  34.748 236.521  1.00 20.00     0.028 C 
HETATM   27  C93 117   166      -2.089  35.125 237.167  1.00 20.00     0.016 C 
HETATM   28  C92 117   166      -0.036  33.713 237.398  1.00 20.00     0.016 C 
ENDBRANCH  12  26
BRANCH  10  29
HETATM   29  C12 117   166      -1.771  32.103 232.204  1.00 20.00    -0.023 A 
HETATM   30  C17 117   166      -0.941  31.049 231.768  1.00 20.00     0.012 A 
HETATM   31  C16 117   166      -1.392  30.125 230.815  1.00 20.00     0.001 A 
HETATM   32  C15 117   166      -2.685  30.242 230.274  1.00 20.00     0.000 A 
HETATM   33  C14 117   166      -3.531  31.283 230.686  1.00 20.00     0.001 A 
HETATM   34  C13 117   166      -3.082  32.208 231.639  1.00 20.00     0.012 A 
ENDBRANCH  10  29
BRANCH  11  35
HETATM   35  C18 117   166      -2.089  32.015 235.489  1.00 20.00     0.259 C 
HETATM   36  N2  117   166      -3.401  32.240 236.039  1.00 20.00    -0.323 N 
ATOM     37  H2  117   166      -3.863  33.105 235.762  1.00  0.00     0.169 HD
HETATM   38  O18 117   166      -1.437  31.005 235.746  1.00 20.00    -0.267 OA
BRANCH  36  39
HETATM   39  C19 117   166      -4.053  31.479 236.836  1.00 20.00     0.035 A 
HETATM   40  C20 117   166      -3.827  31.536 238.227  1.00 20.00     0.029 A 
HETATM   41  C21 117   166      -4.528  30.684 239.090  1.00 20.00     0.002 A 
HETATM   42  C22 117   166      -5.453  29.771 238.571  1.00 20.00     0.000 A 
HETATM   43  C23 117   166      -5.689  29.708 237.196  1.00 20.00     0.002 A 
HETATM   44  C24 117   166      -4.995  30.557 236.332  1.00 20.00     0.029 A 
ENDBRANCH  36  39
ENDBRANCH  11  35
TORSDOF 13
ENDMDL
MODEL 6
REMARK VINA RESULT:      -6.3      3.299      6.317
REMARK  13 active torsions:
REMARK  status: ('A' for Active; 'I' for Inactive)
REMARK    1  A    between atoms: C10_33  and  C12_2 
REMARK    2  A    between atoms: C19_15  and  N2_36 
REMARK    3  A    between atoms: C3_27  and  O3_23 
REMARK    4  A    between atoms: C1_25  and  C2_26 
REMARK    5  A    between atoms: C2_26  and  C3_27 
REMARK    6  A    between atoms: C3_27  and  C4_28 
REMARK    7  A    between atoms: C4_28  and  C5_29 
REMARK    8  A    between atoms: C5_29  and  O5_43 
REMARK    9  A    between atoms: C5_29  and  C6_30 
REMARK   10  A    between atoms: C6_30  and  C7_31 
REMARK   11  A    between atoms: C7_31  and  N1_32 
REMARK   12  A    between atoms: C11_34  and  C18_35 
REMARK       I    between atoms: C18_35  and  N2_36 
REMARK   13  A    between atoms: C9_39  and  C91_40 
ROOT
HETATM    1  C83 117   166       2.532  33.178 235.478  1.00 20.00     0.043 A 
HETATM    2  C82 117   166       1.321  33.159 234.735  1.00 20.00     0.017 A 
HETATM    3  C81 117   166       0.786  34.364 234.235  1.00 20.00    -0.008 A 
HETATM    4  C86 117   166       1.489  35.571 234.501  1.00 20.00     0.017 A 
HETATM    5  C85 117   166       2.672  35.593 235.225  1.00 20.00     0.043 A 
HETATM    6  C84 117   166       3.198  34.406 235.715  1.00 20.00     0.116 A 
HETATM    7  F1  117   166       4.353  34.442 236.430  1.00 20.00    -0.206 F 
HETATM    8  C8  117   166      -0.423  34.466 233.487  1.00 20.00     0.057 A 
HETATM    9  N1  117   166      -0.458  34.777 232.096  1.00 20.00    -0.347 N 
HETATM   10  C10 117   166      -1.755  34.309 233.999  1.00 20.00     0.020 A 
HETATM   11  C11 117   166      -2.630  34.556 232.896  1.00 20.00     0.068 A 
HETATM   12  C9  117   166      -1.825  34.830 231.766  1.00 20.00     0.032 A 
ENDROOT
BRANCH   9  13
HETATM   13  C7  117   166       0.701  35.013 231.172  1.00 20.00     0.132 C 
BRANCH  13  14
HETATM   14  C6  117   166       1.090  33.743 230.386  1.00 20.00     0.052 C 
BRANCH  14  15
HETATM   15  C5  117   166       1.242  34.038 228.889  1.00 20.00     0.122 C 
BRANCH  15  16
HETATM   16  C4  117   166       1.492  35.519 228.643  1.00 20.00     0.064 C 
BRANCH  16  17
HETATM   17  C3  117   166       2.695  35.702 227.750  1.00 20.00     0.130 C 
BRANCH  17  18
HETATM   18  C2  117   166       2.643  37.014 226.953  1.00 20.00     0.144 C 
BRANCH  18  19
HETATM   19  C1  117   166       3.877  37.893 227.150  1.00 20.00     0.175 C 
HETATM   20  O1A 117   166       3.577  39.200 227.122  1.00 20.00    -0.648 OA
HETATM   21  O1B 117   166       5.011  37.469 227.312  1.00 20.00    -0.648 OA
ENDBRANCH  18  19
ENDBRANCH  17  18
BRANCH  17  22
HETATM   22  O3  117   166       2.710  34.603 226.852  1.00 20.00    -0.395 OA
ATOM     23  H3  117   166       3.148  33.866 227.260  1.00  0.00     0.210 HD
ENDBRANCH  17  22
ENDBRANCH  16  17
ENDBRANCH  15  16
BRANCH  15  24
HETATM   24  O5  117   166       0.069  33.685 228.203  1.00 20.00    -0.395 OA
ATOM     25  H5  117   166      -0.341  32.974 228.682  1.00  0.00     0.210 HD
ENDBRANCH  15  24
ENDBRANCH  14  15
ENDBRANCH  13  14
ENDBRANCH   9  13
BRANCH  12  26
HETATM   26  C91 117   166      -2.280  35.164 230.315  1.00 20.00     0.028 C 
HETATM   27  C93 117   166      -3.340  34.204 229.758  1.00 20.00     0.016 C 
HETATM   28  C92 117   166      -2.790  36.605 230.201  1.00 20.00     0.016 C 
ENDBRANCH  12  26
BRANCH  10  29
HETATM   29  C12 117   166      -2.085  33.978 235.338  1.00 20.00    -0.023 A 
HETATM   30  C17 117   166      -2.149  34.952 236.357  1.00 20.00     0.012 A 
HETATM   31  C16 117   166      -2.441  34.591 237.679  1.00 20.00     0.001 A 
HETATM   32  C15 117   166      -2.672  33.244 238.010  1.00 20.00     0.000 A 
HETATM   33  C14 117   166      -2.611  32.253 237.018  1.00 20.00     0.001 A 
HETATM   34  C13 117   166      -2.318  32.611 235.695  1.00 20.00     0.012 A 
ENDBRANCH  10  29
BRANCH  11  35
HETATM   35  C18 117   166      -4.169  34.558 232.844  1.00 20.00     0.259 C 
HETATM   36  N2  117   166      -4.885  33.309 232.859  1.00 20.00    -0.323 N 
ATOM     37  H2  117   166      -4.317  32.464 232.924  1.00  0.00     0.169 HD
HETATM   38  O18 117   166      -4.746  35.641 232.774  1.00 20.00    -0.267 OA
BRANCH  36  39
HETATM   39  C19 117   166      -6.153  33.136 232.800  1.00 20.00     0.035 A 
HETATM   40  C20 117   166      -6.941  33.205 233.968  1.00 20.00     0.029 A 
HETATM   41  C21 117   166      -8.323  32.992 233.899  1.00 20.00     0.002 A 
HETATM   42  C22 117   166      -8.925  32.707 232.668  1.00 20.00     0.000 A 
HETATM   43  C23 117   166      -8.156  32.639 231.504  1.00 20.00     0.002 A 
HETATM   44  C24 117   166      -6.778  32.853 231.567  1.00 20.00     0.029 A 
ENDBRANCH  36  39
ENDBRANCH  11  35
TORSDOF 13
ENDMDL
MODEL 7
REMARK VINA RESULT:      -6.1      3.304      5.282
REMARK  13 active torsions:
REMARK  status: ('A' for Active; 'I' for Inactive)
REMARK    1  A    between atoms: C10_33  and  C12_2 
REMARK    2  A    between atoms: C19_15  and  N2_36 
REMARK    3  A    between atoms: C3_27  and  O3_23 
REMARK    4  A    between atoms: C1_25  and  C2_26 
REMARK    5  A    between atoms: C2_26  and  C3_27 
REMARK    6  A    between atoms: C3_27  and  C4_28 
REMARK    7  A    between atoms: C4_28  and  C5_29 
REMARK    8  A    between atoms: C5_29  and  O5_43 
REMARK    9  A    between atoms: C5_29  and  C6_30 
REMARK   10  A    between atoms: C6_30  and  C7_31 
REMARK   11  A    between atoms: C7_31  and  N1_32 
REMARK   12  A    between atoms: C11_34  and  C18_35 
REMARK       I    between atoms: C18_35  and  N2_36 
REMARK   13  A    between atoms: C9_39  and  C91_40 
ROOT
HETATM    1  C83 117   166      -2.601  36.060 230.717  1.00 20.00     0.043 A 
HETATM    2  C82 117   166      -2.517  35.484 232.014  1.00 20.00     0.017 A 
HETATM    3  C81 117   166      -1.873  34.243 232.190  1.00 20.00    -0.008 A 
HETATM    4  C86 117   166      -1.325  33.603 231.044  1.00 20.00     0.017 A 
HETATM    5  C85 117   166      -1.405  34.162 229.777  1.00 20.00     0.043 A 
HETATM    6  C84 117   166      -2.038  35.384 229.606  1.00 20.00     0.116 A 
HETATM    7  F1  117   166      -2.115  35.918 228.359  1.00 20.00    -0.206 F 
HETATM    8  C8  117   166      -1.738  33.568 233.439  1.00 20.00     0.057 A 
HETATM    9  N1  117   166      -0.495  33.434 234.124  1.00 20.00    -0.347 N 
HETATM   10  C10 117   166      -2.786  32.913 234.169  1.00 20.00     0.020 A 
HETATM   11  C11 117   166      -2.162  32.340 235.319  1.00 20.00     0.068 A 
HETATM   12  C9  117   166      -0.789  32.671 235.270  1.00 20.00     0.032 A 
ENDROOT
BRANCH   9  13
HETATM   13  C7  117   166       0.847  33.972 233.720  1.00 20.00     0.132 C 
BRANCH  13  14
HETATM   14  C6  117   166       0.949  35.499 233.919  1.00 20.00     0.052 C 
BRANCH  14  15
HETATM   15  C5  117   166       2.201  35.874 234.723  1.00 20.00     0.122 C 
BRANCH  15  16
HETATM   16  C4  117   166       2.195  35.208 236.091  1.00 20.00     0.064 C 
BRANCH  16  17
HETATM   17  C3  117   166       3.610  34.990 236.569  1.00 20.00     0.130 C 
BRANCH  17  18
HETATM   18  C2  117   166       3.839  35.520 237.992  1.00 20.00     0.144 C 
BRANCH  18  19
HETATM   19  C1  117   166       4.455  36.918 238.028  1.00 20.00     0.175 C 
HETATM   20  O1A 117   166       5.585  36.955 238.750  1.00 20.00    -0.648 OA
HETATM   21  O1B 117   166       3.983  37.898 237.472  1.00 20.00    -0.648 OA
ENDBRANCH  18  19
ENDBRANCH  17  18
BRANCH  17  22
HETATM   22  O3  117   166       4.459  35.681 235.665  1.00 20.00    -0.395 OA
ATOM     23  H3  117   166       4.049  35.716 234.809  1.00  0.00     0.210 HD
ENDBRANCH  17  22
ENDBRANCH  16  17
ENDBRANCH  15  16
BRANCH  15  24
HETATM   24  O5  117   166       2.250  37.262 234.924  1.00 20.00    -0.395 OA
ATOM     25  H5  117   166       2.470  37.413 235.835  1.00  0.00     0.210 HD
ENDBRANCH  15  24
ENDBRANCH  14  15
ENDBRANCH  13  14
ENDBRANCH   9  13
BRANCH  12  26
HETATM   26  C91 117   166       0.333  32.293 236.281  1.00 20.00     0.028 C 
HETATM   27  C93 117   166       0.010  32.657 237.736  1.00 20.00     0.016 C 
HETATM   28  C92 117   166       0.689  30.804 236.198  1.00 20.00     0.016 C 
ENDBRANCH  12  26
BRANCH  10  29
HETATM   29  C12 117   166      -4.150  32.868 233.782  1.00 20.00    -0.023 A 
HETATM   30  C17 117   166      -5.063  33.885 234.133  1.00 20.00     0.012 A 
HETATM   31  C16 117   166      -6.413  33.796 233.769  1.00 20.00     0.001 A 
HETATM   32  C15 117   166      -6.880  32.682 233.050  1.00 20.00     0.000 A 
HETATM   33  C14 117   166      -5.996  31.653 232.692  1.00 20.00     0.001 A 
HETATM   34  C13 117   166      -4.644  31.739 233.054  1.00 20.00     0.012 A 
ENDBRANCH  10  29
BRANCH  11  35
HETATM   35  C18 117   166      -2.776  31.495 236.452  1.00 20.00     0.259 C 
HETATM   36  N2  117   166      -3.547  32.139 237.484  1.00 20.00    -0.323 N 
ATOM     37  H2  117   166      -3.664  33.148 237.396  1.00  0.00     0.169 HD
HETATM   38  O18 117   166      -2.572  30.283 236.448  1.00 20.00    -0.267 OA
BRANCH  36  39
HETATM   39  C19 117   166      -4.103  31.590 238.499  1.00 20.00     0.035 A 
HETATM   40  C20 117   166      -3.620  31.836 239.801  1.00 20.00     0.029 A 
HETATM   41  C21 117   166      -4.218  31.214 240.903  1.00 20.00     0.002 A 
HETATM   42  C22 117   166      -5.298  30.343 240.714  1.00 20.00     0.000 A 
HETATM   43  C23 117   166      -5.788  30.095 239.429  1.00 20.00     0.002 A 
HETATM   44  C24 117   166      -5.196  30.714 238.327  1.00 20.00     0.029 A 
ENDBRANCH  36  39
ENDBRANCH  11  35
TORSDOF 13
ENDMDL
MODEL 8
REMARK VINA RESULT:      -6.1      2.712      6.042
REMARK  13 active torsions:
REMARK  status: ('A' for Active; 'I' for Inactive)
REMARK    1  A    between atoms: C10_33  and  C12_2 
REMARK    2  A    between atoms: C19_15  and  N2_36 
REMARK    3  A    between atoms: C3_27  and  O3_23 
REMARK    4  A    between atoms: C1_25  and  C2_26 
REMARK    5  A    between atoms: C2_26  and  C3_27 
REMARK    6  A    between atoms: C3_27  and  C4_28 
REMARK    7  A    between atoms: C4_28  and  C5_29 
REMARK    8  A    between atoms: C5_29  and  O5_43 
REMARK    9  A    between atoms: C5_29  and  C6_30 
REMARK   10  A    between atoms: C6_30  and  C7_31 
REMARK   11  A    between atoms: C7_31  and  N1_32 
REMARK   12  A    between atoms: C11_34  and  C18_35 
REMARK       I    between atoms: C18_35  and  N2_36 
REMARK   13  A    between atoms: C9_39  and  C91_40 
ROOT
HETATM    1  C83 117   166       1.821  34.470 228.927  1.00 20.00     0.043 A 
HETATM    2  C82 117   166       0.879  33.965 229.863  1.00 20.00     0.017 A 
HETATM    3  C81 117   166      -0.292  34.698 230.146  1.00 20.00    -0.008 A 
HETATM    4  C86 117   166      -0.487  35.936 229.473  1.00 20.00     0.017 A 
HETATM    5  C85 117   166       0.431  36.432 228.558  1.00 20.00     0.043 A 
HETATM    6  C84 117   166       1.582  35.709 228.282  1.00 20.00     0.116 A 
HETATM    7  F1  117   166       2.476  36.210 227.389  1.00 20.00    -0.206 F 
HETATM    8  C8  117   166      -1.299  34.294 231.070  1.00 20.00     0.057 A 
HETATM    9  N1  117   166      -2.597  33.858 230.672  1.00 20.00    -0.347 N 
HETATM   10  C10 117   166      -1.186  34.288 232.501  1.00 20.00     0.020 A 
HETATM   11  C11 117   166      -2.459  33.861 232.992  1.00 20.00     0.068 A 
HETATM   12  C9  117   166      -3.284  33.606 231.873  1.00 20.00     0.032 A 
ENDROOT
BRANCH   9  13
HETATM   13  C7  117   166      -3.134  33.707 229.278  1.00 20.00     0.132 C 
BRANCH  13  14
HETATM   14  C6  117   166      -4.071  34.869 228.884  1.00 20.00     0.052 C 
BRANCH  14  15
HETATM   15  C5  117   166      -3.359  35.872 227.966  1.00 20.00     0.122 C 
BRANCH  15  16
HETATM   16  C4  117   166      -4.337  36.893 227.404  1.00 20.00     0.064 C 
BRANCH  16  17
HETATM   17  C3  117   166      -3.957  38.281 227.861  1.00 20.00     0.130 C 
BRANCH  17  18
HETATM   18  C2  117   166      -2.540  38.678 227.421  1.00 20.00     0.144 C 
BRANCH  18  19
HETATM   19  C1  117   166      -1.889  39.716 228.335  1.00 20.00     0.175 C 
HETATM   20  O1A 117   166      -2.205  40.970 227.982  1.00 20.00    -0.648 OA
HETATM   21  O1B 117   166      -1.161  39.448 229.278  1.00 20.00    -0.648 OA
ENDBRANCH  18  19
ENDBRANCH  17  18
BRANCH  17  22
HETATM   22  O3  117   166      -4.030  38.281 229.277  1.00 20.00    -0.395 OA
ATOM     23  H3  117   166      -4.474  37.494 229.572  1.00  0.00     0.210 HD
ENDBRANCH  17  22
ENDBRANCH  16  17
ENDBRANCH  15  16
BRANCH  15  24
HETATM   24  O5  117   166      -2.772  35.203 226.881  1.00 20.00    -0.395 OA
ATOM     25  H5  117   166      -2.023  34.720 227.211  1.00  0.00     0.210 HD
ENDBRANCH  15  24
ENDBRANCH  14  15
ENDBRANCH  13  14
ENDBRANCH   9  13
BRANCH  12  26
HETATM   26  C91 117   166      -4.764  33.120 231.856  1.00 20.00     0.028 C 
HETATM   27  C93 117   166      -4.952  31.680 232.350  1.00 20.00     0.016 C 
HETATM   28  C92 117   166      -5.675  34.056 232.659  1.00 20.00     0.016 C 
ENDBRANCH  12  26
BRANCH  10  29
HETATM   29  C12 117   166      -0.025  34.645 233.233  1.00 20.00    -0.023 A 
HETATM   30  C17 117   166       0.800  33.681 233.849  1.00 20.00     0.012 A 
HETATM   31  C16 117   166       1.920  34.065 234.598  1.00 20.00     0.001 A 
HETATM   32  C15 117   166       2.236  35.427 234.751  1.00 20.00     0.000 A 
HETATM   33  C14 117   166       1.430  36.409 234.153  1.00 20.00     0.001 A 
HETATM   34  C13 117   166       0.309  36.027 233.404  1.00 20.00     0.012 A 
ENDBRANCH  10  29
BRANCH  11  35
HETATM   35  C18 117   166      -2.944  33.690 234.444  1.00 20.00     0.259 C 
HETATM   36  N2  117   166      -2.850  32.401 235.080  1.00 20.00    -0.323 N 
ATOM     37  H2  117   166      -2.438  31.653 234.523  1.00  0.00     0.169 HD
HETATM   38  O18 117   166      -3.418  34.669 235.017  1.00 20.00    -0.267 OA
BRANCH  36  39
HETATM   39  C19 117   166      -3.226  32.086 236.263  1.00 20.00     0.035 A 
HETATM   40  C20 117   166      -4.326  31.226 236.461  1.00 20.00     0.029 A 
HETATM   41  C21 117   166      -4.743  30.906 237.759  1.00 20.00     0.002 A 
HETATM   42  C22 117   166      -4.071  31.442 238.863  1.00 20.00     0.000 A 
HETATM   43  C23 117   166      -2.978  32.292 238.679  1.00 20.00     0.002 A 
HETATM   44  C24 117   166      -2.555  32.613 237.388  1.00 20.00     0.029 A 
ENDBRANCH  36  39
ENDBRANCH  11  35
TORSDOF 13
ENDMDL
MODEL 9
REMARK VINA RESULT:      -6.1      1.666      2.107
REMARK  13 active torsions:
REMARK  status: ('A' for Active; 'I' for Inactive)
REMARK    1  A    between atoms: C10_33  and  C12_2 
REMARK    2  A    between atoms: C19_15  and  N2_36 
REMARK    3  A    between atoms: C3_27  and  O3_23 
REMARK    4  A    between atoms: C1_25  and  C2_26 
REMARK    5  A    between atoms: C2_26  and  C3_27 
REMARK    6  A    between atoms: C3_27  and  C4_28 
REMARK    7  A    between atoms: C4_28  and  C5_29 
REMARK    8  A    between atoms: C5_29  and  O5_43 
REMARK    9  A    between atoms: C5_29  and  C6_30 
REMARK   10  A    between atoms: C6_30  and  C7_31 
REMARK   11  A    between atoms: C7_31  and  N1_32 
REMARK   12  A    between atoms: C11_34  and  C18_35 
REMARK       I    between atoms: C18_35  and  N2_36 
REMARK   13  A    between atoms: C9_39  and  C91_40 
ROOT
HETATM    1  C83 117   166       1.174  36.003 227.944  1.00 20.00     0.043 A 
HETATM    2  C82 117   166       0.224  36.008 229.001  1.00 20.00     0.017 A 
HETATM    3  C81 117   166      -0.082  34.809 229.676  1.00 20.00    -0.008 A 
HETATM    4  C86 117   166       0.582  33.620 229.264  1.00 20.00     0.017 A 
HETATM    5  C85 117   166       1.510  33.611 228.232  1.00 20.00     0.043 A 
HETATM    6  C84 117   166       1.810  34.793 227.571  1.00 20.00     0.116 A 
HETATM    7  F1  117   166       2.716  34.770 226.558  1.00 20.00    -0.206 F 
HETATM    8  C8  117   166      -1.022  34.693 230.741  1.00 20.00     0.057 A 
HETATM    9  N1  117   166      -0.644  34.451 232.095  1.00 20.00    -0.347 N 
HETATM   10  C10 117   166      -2.450  34.770 230.626  1.00 20.00     0.020 A 
HETATM   11  C11 117   166      -2.961  34.542 231.941  1.00 20.00     0.068 A 
HETATM   12  C9  117   166      -1.856  34.358 232.803  1.00 20.00     0.032 A 
ENDROOT
BRANCH   9  13
HETATM   13  C7  117   166       0.741  34.310 232.657  1.00 20.00     0.132 C 
BRANCH  13  14
HETATM   14  C6  117   166       1.506  35.651 232.670  1.00 20.00     0.052 C 
BRANCH  14  15
HETATM   15  C5  117   166       1.963  36.018 234.088  1.00 20.00     0.122 C 
BRANCH  15  16
HETATM   16  C4  117   166       1.676  34.889 235.068  1.00 20.00     0.064 C 
BRANCH  16  17
HETATM   17  C3  117   166       2.738  34.848 236.139  1.00 20.00     0.130 C 
BRANCH  17  18
HETATM   18  C2  117   166       2.204  35.275 237.514  1.00 20.00     0.144 C 
BRANCH  18  19
HETATM   19  C1  117   166       3.188  35.018 238.655  1.00 20.00     0.175 C 
HETATM   20  O1A 117   166       4.241  35.847 238.611  1.00 20.00    -0.648 OA
HETATM   21  O1B 117   166       3.047  34.158 239.511  1.00 20.00    -0.648 OA
ENDBRANCH  18  19
ENDBRANCH  17  18
BRANCH  17  22
HETATM   22  O3  117   166       3.765  35.739 235.733  1.00 20.00    -0.395 OA
ATOM     23  H3  117   166       4.398  35.834 236.434  1.00  0.00     0.210 HD
ENDBRANCH  17  22
ENDBRANCH  16  17
ENDBRANCH  15  16
BRANCH  15  24
HETATM   24  O5  117   166       1.278  37.157 234.539  1.00 20.00    -0.395 OA
ATOM     25  H5  117   166       0.368  37.067 234.282  1.00  0.00     0.210 HD
ENDBRANCH  15  24
ENDBRANCH  14  15
ENDBRANCH  13  14
ENDBRANCH   9  13
BRANCH  12  26
HETATM   26  C91 117   166      -1.862  34.079 234.335  1.00 20.00     0.028 C 
HETATM   27  C93 117   166      -2.284  35.283 235.186  1.00 20.00     0.016 C 
HETATM   28  C92 117   166      -2.743  32.874 234.685  1.00 20.00     0.016 C 
ENDBRANCH  12  26
BRANCH  10  29
HETATM   29  C12 117   166      -3.164  35.019 229.426  1.00 20.00    -0.023 A 
HETATM   30  C17 117   166      -3.329  36.321 228.908  1.00 20.00     0.012 A 
HETATM   31  C16 117   166      -4.071  36.541 227.740  1.00 20.00     0.001 A 
HETATM   32  C15 117   166      -4.669  35.461 227.067  1.00 20.00     0.000 A 
HETATM   33  C14 117   166      -4.526  34.156 227.562  1.00 20.00     0.001 A 
HETATM   34  C13 117   166      -3.785  33.932 228.731  1.00 20.00     0.012 A 
ENDBRANCH  10  29
BRANCH  11  35
HETATM   35  C18 117   166      -4.420  34.478 232.431  1.00 20.00     0.259 C 
HETATM   36  N2  117   166      -5.211  33.304 232.165  1.00 20.00    -0.323 N 
ATOM     37  H2  117   166      -4.742  32.548 231.668  1.00  0.00     0.169 HD
HETATM   38  O18 117   166      -4.876  35.452 233.027  1.00 20.00    -0.267 OA
BRANCH  36  39
HETATM   39  C19 117   166      -6.436  33.101 232.481  1.00 20.00     0.035 A 
HETATM   40  C20 117   166      -7.459  33.264 231.525  1.00 20.00     0.029 A 
HETATM   41  C21 117   166      -8.797  33.063 231.885  1.00 20.00     0.002 A 
HETATM   42  C22 117   166      -9.122  32.701 233.197  1.00 20.00     0.000 A 
HETATM   43  C23 117   166      -8.116  32.532 234.152  1.00 20.00     0.002 A 
HETATM   44  C24 117   166      -6.781  32.730 233.798  1.00 20.00     0.029 A 
ENDBRANCH  36  39
ENDBRANCH  11  35
TORSDOF 13
ENDMDL
