MODEL 1
REMARK VINA RESULT:      -6.7      0.000      0.000
REMARK  8 active torsions:
REMARK  status: ('A' for Active; 'I' for Inactive)
REMARK    1  A    between atoms: C3_5  and  O_1 
REMARK    2  A    between atoms: C7_8  and  C8_9 
REMARK    3  A    between atoms: C8_9  and  C9_10 
REMARK    4  A    between atoms: C17_19  and  C20_22 
REMARK    5  A    between atoms: C20_22  and  C22_24 
REMARK    6  A    between atoms: C22_24  and  C23_25 
REMARK    7  A    between atoms: C23_25  and  C24_26 
REMARK    8  A    between atoms: C24_26  and  C25_27 
ROOT
HETATM    1  C9  VD3  7616       0.277  34.204 230.960  1.00 20.00     0.013 C 
HETATM    2  C10 VD3  7616       0.839  32.723 231.312  1.00 20.00     0.009 C 
HETATM    3  C11 VD3  7616       0.988  32.382 232.751  1.00 20.00     0.001 C 
HETATM    4  C12 VD3  7616       1.224  33.555 233.780  1.00 20.00     0.010 C 
HETATM    5  C13 VD3  7616       0.400  34.826 233.533  1.00 20.00    -0.036 C 
HETATM    6  C14 VD3  7616      -0.541  34.687 232.275  1.00 20.00     0.002 C 
HETATM    7  C15 VD3  7616      -1.235  36.141 232.271  1.00 20.00     0.006 C 
HETATM    8  C16 VD3  7616      -1.344  36.568 233.847  1.00 20.00     0.006 C 
HETATM    9  C17 VD3  7616      -0.757  35.314 234.598  1.00 20.00    -0.002 C 
HETATM   10  C18 VD3  7616       1.551  35.928 233.362  1.00 20.00     0.016 C 
ENDROOT
BRANCH   1  11
HETATM   11  C8  VD3  7616      -0.189  33.769 229.714  1.00 20.00    -0.021 C 
BRANCH  11  12
HETATM   12  C7  VD3  7616      -0.632  34.696 228.597  1.00 20.00     0.004 C 
HETATM   13  C5  VD3  7616      -1.404  35.802 228.364  1.00 20.00    -0.051 C 
HETATM   14  C4  VD3  7616      -0.841  37.272 228.682  1.00 20.00     0.070 C 
HETATM   15  C6  VD3  7616      -2.849  35.825 227.809  1.00 20.00    -0.061 C 
HETATM   16  C3  VD3  7616      -1.865  38.253 229.312  1.00 20.00     0.122 C 
HETATM   17  C2  VD3  7616      -3.292  38.122 228.602  1.00 20.00     0.036 C 
HETATM   18  C1  VD3  7616      -3.381  37.223 227.425  1.00 20.00     0.041 C 
HETATM   19  C19 VD3  7616      -3.575  34.792 227.656  1.00 20.00     0.019 C 
BRANCH  16  20
HETATM   20  O   VD3  7616      -1.393  39.606 229.163  1.00 20.00    -0.395 OA
ATOM     21  HO  VD3  7616      -0.564  39.593 228.700  1.00  0.00     0.210 HD
ENDBRANCH  16  20
ENDBRANCH  11  12
ENDBRANCH   1  11
BRANCH   9  22
HETATM   22  C20 VD3  7616      -0.100  35.628 236.087  1.00 20.00    -0.014 C 
HETATM   23  C21 VD3  7616      -0.824  34.772 237.101  1.00 20.00     0.010 C 
BRANCH  22  24
HETATM   24  C22 VD3  7616      -0.228  37.044 236.764  1.00 20.00     0.005 C 
BRANCH  24  25
HETATM   25  C23 VD3  7616       1.197  37.887 236.451  1.00 20.00     0.001 C 
BRANCH  25  26
HETATM   26  C24 VD3  7616       2.100  37.187 237.494  1.00 20.00     0.004 C 
BRANCH  26  27
HETATM   27  C25 VD3  7616       3.433  36.506 237.102  1.00 20.00    -0.023 C 
HETATM   28  C26 VD3  7616       3.378  35.685 238.254  1.00 20.00     0.009 C 
HETATM   29  C27 VD3  7616       3.688  35.360 236.265  1.00 20.00     0.009 C 
ENDBRANCH  26  27
ENDBRANCH  25  26
ENDBRANCH  24  25
ENDBRANCH  22  24
ENDBRANCH   9  22
TORSDOF 8
ENDMDL
MODEL 2
REMARK VINA RESULT:      -6.6      2.047      2.760
REMARK  8 active torsions:
REMARK  status: ('A' for Active; 'I' for Inactive)
REMARK    1  A    between atoms: C3_5  and  O_1 
REMARK    2  A    between atoms: C7_8  and  C8_9 
REMARK    3  A    between atoms: C8_9  and  C9_10 
REMARK    4  A    between atoms: C17_19  and  C20_22 
REMARK    5  A    between atoms: C20_22  and  C22_24 
REMARK    6  A    between atoms: C22_24  and  C23_25 
REMARK    7  A    between atoms: C23_25  and  C24_26 
REMARK    8  A    between atoms: C24_26  and  C25_27 
ROOT
HETATM    1  C9  VD3  7616       0.990  32.155 232.368  1.00 20.00     0.013 C 
HETATM    2  C10 VD3  7616       0.045  31.033 233.059  1.00 20.00     0.009 C 
HETATM    3  C11 VD3  7616      -0.694  31.434 234.285  1.00 20.00     0.001 C 
HETATM    4  C12 VD3  7616      -0.092  32.585 235.181  1.00 20.00     0.010 C 
HETATM    5  C13 VD3  7616       0.515  33.769 234.416  1.00 20.00    -0.036 C 
HETATM    6  C14 VD3  7616       0.400  33.585 232.853  1.00 20.00     0.002 C 
HETATM    7  C15 VD3  7616       1.119  34.938 232.351  1.00 20.00     0.006 C 
HETATM    8  C16 VD3  7616       0.763  36.060 233.487  1.00 20.00     0.006 C 
HETATM    9  C17 VD3  7616      -0.155  35.271 234.494  1.00 20.00    -0.002 C 
HETATM   10  C18 VD3  7616       2.023  33.764 234.958  1.00 20.00     0.016 C 
ENDROOT
BRANCH   1  11
HETATM   11  C8  VD3  7616       0.903  31.515 231.127  1.00 20.00    -0.021 C 
BRANCH  11  12
HETATM   12  C7  VD3  7616       0.374  32.169 229.863  1.00 20.00     0.004 C 
HETATM   13  C5  VD3  7616       0.370  33.362 229.195  1.00 20.00    -0.051 C 
HETATM   14  C4  VD3  7616       1.626  33.798 228.294  1.00 20.00     0.070 C 
HETATM   15  C6  VD3  7616      -0.754  34.427 229.201  1.00 20.00    -0.061 C 
HETATM   16  C3  VD3  7616       2.019  35.297 228.382  1.00 20.00     0.122 C 
HETATM   17  C2  VD3  7616       0.720  36.229 228.377  1.00 20.00     0.036 C 
HETATM   18  C1  VD3  7616      -0.589  35.561 228.167  1.00 20.00     0.041 C 
HETATM   19  C19 VD3  7616      -1.762  34.400 229.977  1.00 20.00     0.019 C 
BRANCH  16  20
HETATM   20  O   VD3  7616       2.848  35.646 227.257  1.00 20.00    -0.395 OA
ATOM     21  HO  VD3  7616       2.303  36.033 226.582  1.00  0.00     0.210 HD
ENDBRANCH  16  20
ENDBRANCH  11  12
ENDBRANCH   1  11
BRANCH   9  22
HETATM   22  C20 VD3  7616      -0.151  35.844 236.049  1.00 20.00    -0.014 C 
HETATM   23  C21 VD3  7616      -1.484  35.497 236.672  1.00 20.00     0.010 C 
BRANCH  22  24
HETATM   24  C22 VD3  7616      -0.081  37.385 236.361  1.00 20.00     0.005 C 
BRANCH  24  25
HETATM   25  C23 VD3  7616       1.197  37.629 237.433  1.00 20.00     0.001 C 
BRANCH  25  26
HETATM   26  C24 VD3  7616       2.360  37.306 236.464  1.00 20.00     0.004 C 
BRANCH  26  27
HETATM   27  C25 VD3  7616       3.598  36.492 236.908  1.00 20.00    -0.023 C 
HETATM   28  C26 VD3  7616       3.921  37.471 237.879  1.00 20.00     0.009 C 
HETATM   29  C27 VD3  7616       3.726  35.440 237.887  1.00 20.00     0.009 C 
ENDBRANCH  26  27
ENDBRANCH  25  26
ENDBRANCH  24  25
ENDBRANCH  22  24
ENDBRANCH   9  22
TORSDOF 8
ENDMDL
MODEL 3
REMARK VINA RESULT:      -6.5      2.818      7.947
REMARK  8 active torsions:
REMARK  status: ('A' for Active; 'I' for Inactive)
REMARK    1  A    between atoms: C3_5  and  O_1 
REMARK    2  A    between atoms: C7_8  and  C8_9 
REMARK    3  A    between atoms: C8_9  and  C9_10 
REMARK    4  A    between atoms: C17_19  and  C20_22 
REMARK    5  A    between atoms: C20_22  and  C22_24 
REMARK    6  A    between atoms: C22_24  and  C23_25 
REMARK    7  A    between atoms: C23_25  and  C24_26 
REMARK    8  A    between atoms: C24_26  and  C25_27 
ROOT
HETATM    1  C9  VD3  7616      -1.276  36.223 234.458  1.00 20.00     0.013 C 
HETATM    2  C10 VD3  7616      -2.261  35.229 235.277  1.00 20.00     0.009 C 
HETATM    3  C11 VD3  7616      -2.368  33.830 234.786  1.00 20.00     0.001 C 
HETATM    4  C12 VD3  7616      -2.092  33.546 233.259  1.00 20.00     0.010 C 
HETATM    5  C13 VD3  7616      -0.919  34.323 232.645  1.00 20.00    -0.036 C 
HETATM    6  C14 VD3  7616      -0.214  35.261 233.699  1.00 20.00     0.002 C 
HETATM    7  C15 VD3  7616       0.924  35.931 232.773  1.00 20.00     0.006 C 
HETATM    8  C16 VD3  7616       1.330  34.774 231.689  1.00 20.00     0.006 C 
HETATM    9  C17 VD3  7616       0.437  33.551 232.120  1.00 20.00    -0.002 C 
HETATM   10  C18 VD3  7616      -1.646  35.117 231.457  1.00 20.00     0.016 C 
ENDROOT
BRANCH   1  11
HETATM   11  C8  VD3  7616      -1.112  37.042 235.581  1.00 20.00    -0.021 C 
BRANCH  11  12
HETATM   12  C7  VD3  7616      -0.270  36.677 236.789  1.00 20.00     0.004 C 
HETATM   13  C5  VD3  7616       0.999  36.301 237.138  1.00 20.00    -0.051 C 
HETATM   14  C4  VD3  7616       2.165  37.397 237.284  1.00 20.00     0.070 C 
HETATM   15  C6  VD3  7616       1.498  34.862 237.418  1.00 20.00    -0.061 C 
HETATM   16  C3  VD3  7616       3.551  36.969 236.734  1.00 20.00     0.122 C 
HETATM   17  C2  VD3  7616       3.878  35.454 237.128  1.00 20.00     0.036 C 
HETATM   18  C1  VD3  7616       2.915  34.766 238.023  1.00 20.00     0.041 C 
HETATM   19  C19 VD3  7616       0.818  33.812 237.190  1.00 20.00     0.019 C 
BRANCH  16  20
HETATM   20  O   VD3  7616       4.573  37.823 237.282  1.00 20.00    -0.395 OA
ATOM     21  HO  VD3  7616       5.316  37.833 236.690  1.00  0.00     0.210 HD
ENDBRANCH  16  20
ENDBRANCH  11  12
ENDBRANCH   1  11
BRANCH   9  22
HETATM   22  C20 VD3  7616       0.079  32.478 230.908  1.00 20.00    -0.014 C 
HETATM   23  C21 VD3  7616       0.641  31.132 231.303  1.00 20.00     0.010 C 
BRANCH  22  24
HETATM   24  C22 VD3  7616       0.686  32.631 229.464  1.00 20.00     0.005 C 
BRANCH  24  25
HETATM   25  C23 VD3  7616      -0.515  33.276 228.473  1.00 20.00     0.001 C 
BRANCH  25  26
HETATM   26  C24 VD3  7616       0.233  34.553 228.025  1.00 20.00     0.004 C 
BRANCH  26  27
HETATM   27  C25 VD3  7616       1.777  34.618 227.949  1.00 20.00    -0.023 C 
HETATM   28  C26 VD3  7616       1.741  34.374 226.555  1.00 20.00     0.009 C 
HETATM   29  C27 VD3  7616       2.659  35.743 227.757  1.00 20.00     0.009 C 
ENDBRANCH  26  27
ENDBRANCH  25  26
ENDBRANCH  24  25
ENDBRANCH  22  24
ENDBRANCH   9  22
TORSDOF 8
ENDMDL
MODEL 4
REMARK VINA RESULT:      -6.4      2.874      3.782
REMARK  8 active torsions:
REMARK  status: ('A' for Active; 'I' for Inactive)
REMARK    1  A    between atoms: C3_5  and  O_1 
REMARK    2  A    between atoms: C7_8  and  C8_9 
REMARK    3  A    between atoms: C8_9  and  C9_10 
REMARK    4  A    between atoms: C17_19  and  C20_22 
REMARK    5  A    between atoms: C20_22  and  C22_24 
REMARK    6  A    between atoms: C22_24  and  C23_25 
REMARK    7  A    between atoms: C23_25  and  C24_26 
REMARK    8  A    between atoms: C24_26  and  C25_27 
ROOT
HETATM    1  C9  VD3  7616       0.632  33.413 231.189  1.00 20.00     0.013 C 
HETATM    2  C10 VD3  7616       1.066  32.030 231.917  1.00 20.00     0.009 C 
HETATM    3  C11 VD3  7616       0.971  31.990 233.400  1.00 20.00     0.001 C 
HETATM    4  C12 VD3  7616       1.093  33.346 234.197  1.00 20.00     0.010 C 
HETATM    5  C13 VD3  7616       0.373  34.548 233.569  1.00 20.00    -0.036 C 
HETATM    6  C14 VD3  7616      -0.361  34.163 232.227  1.00 20.00     0.002 C 
HETATM    7  C15 VD3  7616      -0.982  35.593 231.818  1.00 20.00     0.006 C 
HETATM    8  C16 VD3  7616      -1.321  36.335 233.237  1.00 20.00     0.006 C 
HETATM    9  C17 VD3  7616      -0.915  35.256 234.310  1.00 20.00    -0.002 C 
HETATM   10  C18 VD3  7616       1.584  35.580 233.371  1.00 20.00     0.016 C 
ENDROOT
BRANCH   1  11
HETATM   11  C8  VD3  7616       0.351  32.737 229.996  1.00 20.00    -0.021 C 
BRANCH  11  12
HETATM   12  C7  VD3  7616       0.158  33.417 228.653  1.00 20.00     0.004 C 
HETATM   13  C5  VD3  7616       0.606  33.384 227.360  1.00 20.00    -0.051 C 
HETATM   14  C4  VD3  7616       0.036  32.294 226.326  1.00 20.00     0.070 C 
HETATM   15  C6  VD3  7616       1.670  34.310 226.722  1.00 20.00    -0.061 C 
HETATM   16  C3  VD3  7616       1.088  31.673 225.369  1.00 20.00     0.122 C 
HETATM   17  C2  VD3  7616       2.091  32.791 224.821  1.00 20.00     0.036 C 
HETATM   18  C1  VD3  7616       1.799  34.199 225.187  1.00 20.00     0.041 C 
HETATM   19  C19 VD3  7616       2.396  35.124 227.375  1.00 20.00     0.019 C 
BRANCH  16  20
HETATM   20  O   VD3  7616       0.420  31.057 224.251  1.00 20.00    -0.395 OA
ATOM     21  HO  VD3  7616       0.048  31.737 223.702  1.00  0.00     0.210 HD
ENDBRANCH  16  20
ENDBRANCH  11  12
ENDBRANCH   1  11
BRANCH   9  22
HETATM   22  C20 VD3  7616      -0.489  35.862 235.793  1.00 20.00    -0.014 C 
HETATM   23  C21 VD3  7616      -1.218  35.061 236.846  1.00 20.00     0.010 C 
BRANCH  22  24
HETATM   24  C22 VD3  7616      -0.873  37.325 236.228  1.00 20.00     0.005 C 
BRANCH  24  25
HETATM   25  C23 VD3  7616       0.336  37.882 237.263  1.00 20.00     0.001 C 
BRANCH  25  26
HETATM   26  C24 VD3  7616       1.518  37.831 236.266  1.00 20.00     0.004 C 
BRANCH  26  27
HETATM   27  C25 VD3  7616       2.792  36.998 236.543  1.00 20.00    -0.023 C 
HETATM   28  C26 VD3  7616       2.743  37.339 237.916  1.00 20.00     0.009 C 
HETATM   29  C27 VD3  7616       2.947  35.602 236.867  1.00 20.00     0.009 C 
ENDBRANCH  26  27
ENDBRANCH  25  26
ENDBRANCH  24  25
ENDBRANCH  22  24
ENDBRANCH   9  22
TORSDOF 8
ENDMDL
MODEL 5
REMARK VINA RESULT:      -6.3      1.959      7.617
REMARK  8 active torsions:
REMARK  status: ('A' for Active; 'I' for Inactive)
REMARK    1  A    between atoms: C3_5  and  O_1 
REMARK    2  A    between atoms: C7_8  and  C8_9 
REMARK    3  A    between atoms: C8_9  and  C9_10 
REMARK    4  A    between atoms: C17_19  and  C20_22 
REMARK    5  A    between atoms: C20_22  and  C22_24 
REMARK    6  A    between atoms: C22_24  and  C23_25 
REMARK    7  A    between atoms: C23_25  and  C24_26 
REMARK    8  A    between atoms: C24_26  and  C25_27 
ROOT
HETATM    1  C9  VD3  7616       0.950  32.604 234.340  1.00 20.00     0.013 C 
HETATM    2  C10 VD3  7616       1.437  31.129 233.874  1.00 20.00     0.009 C 
HETATM    3  C11 VD3  7616       1.554  30.888 232.412  1.00 20.00     0.001 C 
HETATM    4  C12 VD3  7616       0.655  31.740 231.436  1.00 20.00     0.010 C 
HETATM    5  C13 VD3  7616       0.505  33.224 231.803  1.00 20.00    -0.036 C 
HETATM    6  C14 VD3  7616       1.308  33.595 233.108  1.00 20.00     0.002 C 
HETATM    7  C15 VD3  7616       0.946  35.160 233.235  1.00 20.00     0.006 C 
HETATM    8  C16 VD3  7616       0.789  35.690 231.694  1.00 20.00     0.006 C 
HETATM    9  C17 VD3  7616       1.122  34.409 230.840  1.00 20.00    -0.002 C 
HETATM   10  C18 VD3  7616      -1.085  33.356 231.962  1.00 20.00     0.016 C 
ENDROOT
BRANCH   1  11
HETATM   11  C8  VD3  7616       1.567  32.452 235.588  1.00 20.00    -0.021 C 
BRANCH  11  12
HETATM   12  C7  VD3  7616       1.628  33.536 236.648  1.00 20.00     0.004 C 
HETATM   13  C5  VD3  7616       1.506  34.889 236.807  1.00 20.00    -0.051 C 
HETATM   14  C4  VD3  7616       0.055  35.572 236.907  1.00 20.00     0.070 C 
HETATM   15  C6  VD3  7616       2.656  35.922 236.894  1.00 20.00    -0.061 C 
HETATM   16  C3  VD3  7616      -0.097  36.922 236.158  1.00 20.00     0.122 C 
HETATM   17  C2  VD3  7616       1.193  37.842 236.373  1.00 20.00     0.036 C 
HETATM   18  C1  VD3  7616       2.228  37.345 237.313  1.00 20.00     0.041 C 
HETATM   19  C19 VD3  7616       3.877  35.656 236.658  1.00 20.00     0.019 C 
BRANCH  16  20
HETATM   20  O   VD3  7616      -1.255  37.622 236.653  1.00 20.00    -0.395 OA
ATOM     21  HO  VD3  7616      -1.580  38.199 235.972  1.00  0.00     0.210 HD
ENDBRANCH  16  20
ENDBRANCH  11  12
ENDBRANCH   1  11
BRANCH   9  22
HETATM   22  C20 VD3  7616       0.434  34.368 229.333  1.00 20.00    -0.014 C 
HETATM   23  C21 VD3  7616       1.530  34.076 228.334  1.00 20.00     0.010 C 
BRANCH  22  24
HETATM   24  C22 VD3  7616      -0.211  35.649 228.685  1.00 20.00     0.005 C 
BRANCH  24  25
HETATM   25  C23 VD3  7616      -1.834  35.685 229.138  1.00 20.00     0.001 C 
BRANCH  25  26
HETATM   26  C24 VD3  7616      -1.935  37.192 229.472  1.00 20.00     0.004 C 
BRANCH  26  27
HETATM   27  C25 VD3  7616      -1.397  38.284 228.517  1.00 20.00    -0.023 C 
HETATM   28  C26 VD3  7616      -2.711  38.586 228.085  1.00 20.00     0.009 C 
HETATM   29  C27 VD3  7616      -1.124  39.681 228.751  1.00 20.00     0.009 C 
ENDBRANCH  26  27
ENDBRANCH  25  26
ENDBRANCH  24  25
ENDBRANCH  22  24
ENDBRANCH   9  22
TORSDOF 8
ENDMDL
MODEL 6
REMARK VINA RESULT:      -6.1      3.347      8.662
REMARK  8 active torsions:
REMARK  status: ('A' for Active; 'I' for Inactive)
REMARK    1  A    between atoms: C3_5  and  O_1 
REMARK    2  A    between atoms: C7_8  and  C8_9 
REMARK    3  A    between atoms: C8_9  and  C9_10 
REMARK    4  A    between atoms: C17_19  and  C20_22 
REMARK    5  A    between atoms: C20_22  and  C22_24 
REMARK    6  A    between atoms: C22_24  and  C23_25 
REMARK    7  A    between atoms: C23_25  and  C24_26 
REMARK    8  A    between atoms: C24_26  and  C25_27 
ROOT
HETATM    1  C9  VD3  7616       0.950  37.185 235.835  1.00 20.00     0.013 C 
HETATM    2  C10 VD3  7616      -0.358  37.536 236.727  1.00 20.00     0.009 C 
HETATM    3  C11 VD3  7616      -1.554  36.673 236.539  1.00 20.00     0.001 C 
HETATM    4  C12 VD3  7616      -1.746  35.947 235.152  1.00 20.00     0.010 C 
HETATM    5  C13 VD3  7616      -0.468  35.369 234.527  1.00 20.00    -0.036 C 
HETATM    6  C14 VD3  7616       0.800  35.622 235.430  1.00 20.00     0.002 C 
HETATM    7  C15 VD3  7616       1.942  34.937 234.522  1.00 20.00     0.006 C 
HETATM    8  C16 VD3  7616       1.199  33.690 233.767  1.00 20.00     0.006 C 
HETATM    9  C17 VD3  7616      -0.266  33.745 234.343  1.00 20.00    -0.002 C 
HETATM   10  C18 VD3  7616      -0.423  36.134 233.120  1.00 20.00     0.016 C 
ENDROOT
BRANCH   1  11
HETATM   11  C8  VD3  7616       1.794  37.801 236.767  1.00 20.00    -0.021 C 
BRANCH  11  12
HETATM   12  C7  VD3  7616       3.127  37.234 237.218  1.00 20.00     0.004 C 
HETATM   13  C5  VD3  7616       3.667  36.184 237.909  1.00 20.00    -0.051 C 
HETATM   14  C4  VD3  7616       3.868  34.756 237.201  1.00 20.00     0.070 C 
HETATM   15  C6  VD3  7616       4.129  36.184 239.387  1.00 20.00    -0.061 C 
HETATM   16  C3  VD3  7616       3.539  33.524 238.085  1.00 20.00     0.122 C 
HETATM   17  C2  VD3  7616       4.099  33.721 239.570  1.00 20.00     0.036 C 
HETATM   18  C1  VD3  7616       4.918  34.932 239.827  1.00 20.00     0.041 C 
HETATM   19  C19 VD3  7616       3.906  37.130 240.207  1.00 20.00     0.019 C 
BRANCH  16  20
HETATM   20  O   VD3  7616       4.140  32.345 237.513  1.00 20.00    -0.395 OA
ATOM     21  HO  VD3  7616       3.525  31.949 236.909  1.00  0.00     0.210 HD
ENDBRANCH  16  20
ENDBRANCH  11  12
ENDBRANCH   1  11
BRANCH   9  22
HETATM   22  C20 VD3  7616      -1.436  33.107 233.357  1.00 20.00    -0.014 C 
HETATM   23  C21 VD3  7616      -2.240  32.122 234.173  1.00 20.00     0.010 C 
BRANCH  22  24
HETATM   24  C22 VD3  7616      -1.070  32.218 232.111  1.00 20.00     0.005 C 
BRANCH  24  25
HETATM   25  C23 VD3  7616      -1.287  33.162 230.731  1.00 20.00     0.001 C 
BRANCH  25  26
HETATM   26  C24 VD3  7616       0.201  33.321 230.339  1.00 20.00     0.004 C 
BRANCH  26  27
HETATM   27  C25 VD3  7616       0.675  34.392 229.328  1.00 20.00    -0.023 C 
HETATM   28  C26 VD3  7616       1.537  34.958 230.298  1.00 20.00     0.009 C 
HETATM   29  C27 VD3  7616       1.742  34.359 228.359  1.00 20.00     0.009 C 
ENDBRANCH  26  27
ENDBRANCH  25  26
ENDBRANCH  24  25
ENDBRANCH  22  24
ENDBRANCH   9  22
TORSDOF 8
ENDMDL
MODEL 7
REMARK VINA RESULT:      -6.0      3.306      5.788
REMARK  8 active torsions:
REMARK  status: ('A' for Active; 'I' for Inactive)
REMARK    1  A    between atoms: C3_5  and  O_1 
REMARK    2  A    between atoms: C7_8  and  C8_9 
REMARK    3  A    between atoms: C8_9  and  C9_10 
REMARK    4  A    between atoms: C17_19  and  C20_22 
REMARK    5  A    between atoms: C20_22  and  C22_24 
REMARK    6  A    between atoms: C22_24  and  C23_25 
REMARK    7  A    between atoms: C23_25  and  C24_26 
REMARK    8  A    between atoms: C24_26  and  C25_27 
ROOT
HETATM    1  C9  VD3  7616       1.665  36.494 227.989  1.00 20.00     0.013 C 
HETATM    2  C10 VD3  7616       2.582  35.276 227.436  1.00 20.00     0.009 C 
HETATM    3  C11 VD3  7616       2.101  33.895 227.702  1.00 20.00     0.001 C 
HETATM    4  C12 VD3  7616       1.181  33.650 228.959  1.00 20.00     0.010 C 
HETATM    5  C13 VD3  7616       0.121  34.729 229.222  1.00 20.00    -0.036 C 
HETATM    6  C14 VD3  7616       0.172  35.883 228.148  1.00 20.00     0.002 C 
HETATM    7  C15 VD3  7616      -1.008  36.836 228.693  1.00 20.00     0.006 C 
HETATM    8  C16 VD3  7616      -2.107  35.821 229.357  1.00 20.00     0.006 C 
HETATM    9  C17 VD3  7616      -1.487  34.399 229.090  1.00 20.00    -0.002 C 
HETATM   10  C18 VD3  7616       0.508  35.206 230.703  1.00 20.00     0.016 C 
ENDROOT
BRANCH   1  11
HETATM   11  C8  VD3  7616       2.186  37.369 227.029  1.00 20.00    -0.021 C 
BRANCH  11  12
HETATM   12  C7  VD3  7616       1.756  38.815 226.867  1.00 20.00     0.004 C 
HETATM   13  C5  VD3  7616       1.762  40.016 227.524  1.00 20.00    -0.051 C 
HETATM   14  C4  VD3  7616       3.081  40.934 227.537  1.00 20.00     0.070 C 
HETATM   15  C6  VD3  7616       0.593  40.644 228.322  1.00 20.00    -0.061 C 
HETATM   16  C3  VD3  7616       3.391  41.632 228.887  1.00 20.00     0.122 C 
HETATM   17  C2  VD3  7616       2.055  42.211 229.550  1.00 20.00     0.036 C 
HETATM   18  C1  VD3  7616       0.808  42.111 228.753  1.00 20.00     0.041 C 
HETATM   19  C19 VD3  7616      -0.485  40.035 228.613  1.00 20.00     0.019 C 
BRANCH  16  20
HETATM   20  O   VD3  7616       4.311  42.719 228.668  1.00 20.00    -0.395 OA
ATOM     21  HO  VD3  7616       5.031  42.641 229.282  1.00  0.00     0.210 HD
ENDBRANCH  16  20
ENDBRANCH  11  12
ENDBRANCH   1  11
BRANCH   9  22
HETATM   22  C20 VD3  7616      -1.942  33.219 230.161  1.00 20.00    -0.014 C 
HETATM   23  C21 VD3  7616      -2.711  32.169 229.393  1.00 20.00     0.010 C 
BRANCH  22  24
HETATM   24  C22 VD3  7616      -2.950  33.512 231.334  1.00 20.00     0.005 C 
BRANCH  24  25
HETATM   25  C23 VD3  7616      -2.046  33.715 232.742  1.00 20.00     0.001 C 
BRANCH  25  26
HETATM   26  C24 VD3  7616      -1.152  32.459 232.611  1.00 20.00     0.004 C 
BRANCH  26  27
HETATM   27  C25 VD3  7616       0.155  32.292 233.423  1.00 20.00    -0.023 C 
HETATM   28  C26 VD3  7616       0.842  31.851 232.267  1.00 20.00     0.009 C 
HETATM   29  C27 VD3  7616       1.202  33.239 233.717  1.00 20.00     0.009 C 
ENDBRANCH  26  27
ENDBRANCH  25  26
ENDBRANCH  24  25
ENDBRANCH  22  24
ENDBRANCH   9  22
TORSDOF 8
ENDMDL
MODEL 8
REMARK VINA RESULT:      -6.0      2.239      8.510
REMARK  8 active torsions:
REMARK  status: ('A' for Active; 'I' for Inactive)
REMARK    1  A    between atoms: C3_5  and  O_1 
REMARK    2  A    between atoms: C7_8  and  C8_9 
REMARK    3  A    between atoms: C8_9  and  C9_10 
REMARK    4  A    between atoms: C17_19  and  C20_22 
REMARK    5  A    between atoms: C20_22  and  C22_24 
REMARK    6  A    between atoms: C22_24  and  C23_25 
REMARK    7  A    between atoms: C23_25  and  C24_26 
REMARK    8  A    between atoms: C24_26  and  C25_27 
ROOT
HETATM    1  C9  VD3  7616       0.035  33.844 230.223  1.00 20.00     0.013 C 
HETATM    2  C10 VD3  7616       1.485  34.210 229.595  1.00 20.00     0.009 C 
HETATM    3  C11 VD3  7616       1.585  35.476 228.821  1.00 20.00     0.001 C 
HETATM    4  C12 VD3  7616       0.285  36.033 228.123  1.00 20.00     0.010 C 
HETATM    5  C13 VD3  7616      -1.007  35.917 228.943  1.00 20.00    -0.036 C 
HETATM    6  C14 VD3  7616      -0.756  35.254 230.352  1.00 20.00     0.002 C 
HETATM    7  C15 VD3  7616      -2.256  35.255 230.943  1.00 20.00     0.006 C 
HETATM    8  C16 VD3  7616      -2.959  36.596 230.322  1.00 20.00     0.006 C 
HETATM    9  C17 VD3  7616      -1.799  37.255 229.486  1.00 20.00    -0.002 C 
HETATM   10  C18 VD3  7616      -1.928  35.038 227.969  1.00 20.00     0.016 C 
ENDROOT
BRANCH   1  11
HETATM   11  C8  VD3  7616       0.626  33.045 231.210  1.00 20.00    -0.021 C 
BRANCH  11  12
HETATM   12  C7  VD3  7616       0.463  33.269 232.702  1.00 20.00     0.004 C 
HETATM   13  C5  VD3  7616       1.047  33.911 233.760  1.00 20.00    -0.051 C 
HETATM   14  C4  VD3  7616       0.796  35.478 234.005  1.00 20.00     0.070 C 
HETATM   15  C6  VD3  7616       1.992  33.288 234.816  1.00 20.00    -0.061 C 
HETATM   16  C3  VD3  7616       2.039  36.287 234.461  1.00 20.00     0.122 C 
HETATM   17  C2  VD3  7616       2.881  35.472 235.550  1.00 20.00     0.036 C 
HETATM   18  C1  VD3  7616       2.306  34.191 236.028  1.00 20.00     0.041 C 
HETATM   19  C19 VD3  7616       2.487  32.119 234.735  1.00 20.00     0.019 C 
BRANCH  16  20
HETATM   20  O   VD3  7616       1.617  37.537 235.040  1.00 20.00    -0.395 OA
ATOM     21  HO  VD3  7616       1.628  38.207 234.366  1.00  0.00     0.210 HD
ENDBRANCH  16  20
ENDBRANCH  11  12
ENDBRANCH   1  11
BRANCH   9  22
HETATM   22  C20 VD3  7616      -2.292  38.208 228.223  1.00 20.00    -0.014 C 
HETATM   23  C21 VD3  7616      -1.519  39.504 228.294  1.00 20.00     0.010 C 
BRANCH  22  24
HETATM   24  C22 VD3  7616      -3.764  38.756 228.129  1.00 20.00     0.005 C 
BRANCH  24  25
HETATM   25  C23 VD3  7616      -4.644  37.687 227.167  1.00 20.00     0.001 C 
BRANCH  25  26
HETATM   26  C24 VD3  7616      -3.935  37.968 225.822  1.00 20.00     0.004 C 
BRANCH  26  27
HETATM   27  C25 VD3  7616      -4.484  38.993 224.801  1.00 20.00    -0.023 C 
HETATM   28  C26 VD3  7616      -5.808  38.753 225.238  1.00 20.00     0.009 C 
HETATM   29  C27 VD3  7616      -4.675  40.418 224.914  1.00 20.00     0.009 C 
ENDBRANCH  26  27
ENDBRANCH  25  26
ENDBRANCH  24  25
ENDBRANCH  22  24
ENDBRANCH   9  22
TORSDOF 8
ENDMDL
MODEL 9
REMARK VINA RESULT:      -6.0      2.621      7.772
REMARK  8 active torsions:
REMARK  status: ('A' for Active; 'I' for Inactive)
REMARK    1  A    between atoms: C3_5  and  O_1 
REMARK    2  A    between atoms: C7_8  and  C8_9 
REMARK    3  A    between atoms: C8_9  and  C9_10 
REMARK    4  A    between atoms: C17_19  and  C20_22 
REMARK    5  A    between atoms: C20_22  and  C22_24 
REMARK    6  A    between atoms: C22_24  and  C23_25 
REMARK    7  A    between atoms: C23_25  and  C24_26 
REMARK    8  A    between atoms: C24_26  and  C25_27 
ROOT
HETATM    1  C9  VD3  7616      -0.231  32.383 234.433  1.00 20.00     0.013 C 
HETATM    2  C10 VD3  7616       0.873  31.196 234.427  1.00 20.00     0.009 C 
HETATM    3  C11 VD3  7616       1.724  31.071 233.215  1.00 20.00     0.001 C 
HETATM    4  C12 VD3  7616       1.152  31.590 231.839  1.00 20.00     0.010 C 
HETATM    5  C13 VD3  7616       0.369  32.909 231.906  1.00 20.00    -0.036 C 
HETATM    6  C14 VD3  7616       0.306  33.487 233.372  1.00 20.00     0.002 C 
HETATM    7  C15 VD3  7616      -0.569  34.817 233.121  1.00 20.00     0.006 C 
HETATM    8  C16 VD3  7616      -0.162  35.319 231.617  1.00 20.00     0.006 C 
HETATM    9  C17 VD3  7616       0.929  34.274 231.174  1.00 20.00    -0.002 C 
HETATM   10  C18 VD3  7616      -1.057  32.467 231.323  1.00 20.00     0.016 C 
ENDROOT
BRANCH   1  11
HETATM   11  C8  VD3  7616      -0.248  32.408 235.832  1.00 20.00    -0.021 C 
BRANCH  11  12
HETATM   12  C7  VD3  7616       0.495  33.425 236.678  1.00 20.00     0.004 C 
HETATM   13  C5  VD3  7616       0.997  34.697 236.632  1.00 20.00    -0.051 C 
HETATM   14  C4  VD3  7616       0.035  35.964 236.851  1.00 20.00     0.070 C 
HETATM   15  C6  VD3  7616       2.467  35.106 236.364  1.00 20.00    -0.061 C 
HETATM   16  C3  VD3  7616       0.314  37.178 235.926  1.00 20.00     0.122 C 
HETATM   17  C2  VD3  7616       1.885  37.434 235.779  1.00 20.00     0.036 C 
HETATM   18  C1  VD3  7616       2.786  36.597 236.608  1.00 20.00     0.041 C 
HETATM   19  C19 VD3  7616       3.376  34.304 235.982  1.00 20.00     0.019 C 
BRANCH  16  20
HETATM   20  O   VD3  7616      -0.301  38.358 236.479  1.00 20.00    -0.395 OA
ATOM     21  HO  VD3  7616       0.357  38.855 236.951  1.00  0.00     0.210 HD
ENDBRANCH  16  20
ENDBRANCH  11  12
ENDBRANCH   1  11
BRANCH   9  22
HETATM   22  C20 VD3  7616       1.073  34.055 229.537  1.00 20.00    -0.014 C 
HETATM   23  C21 VD3  7616       1.915  35.185 228.993  1.00 20.00     0.010 C 
BRANCH  22  24
HETATM   24  C22 VD3  7616      -0.174  34.140 228.581  1.00 20.00     0.005 C 
BRANCH  24  25
HETATM   25  C23 VD3  7616       0.284  33.500 227.090  1.00 20.00     0.001 C 
BRANCH  25  26
HETATM   26  C24 VD3  7616       0.566  32.050 227.551  1.00 20.00     0.004 C 
BRANCH  26  27
HETATM   27  C25 VD3  7616       1.969  31.409 227.437  1.00 20.00    -0.023 C 
HETATM   28  C26 VD3  7616       1.464  30.168 227.894  1.00 20.00     0.009 C 
HETATM   29  C27 VD3  7616       2.616  30.765 226.320  1.00 20.00     0.009 C 
ENDBRANCH  26  27
ENDBRANCH  25  26
ENDBRANCH  24  25
ENDBRANCH  22  24
ENDBRANCH   9  22
TORSDOF 8
ENDMDL
