MODEL 1
REMARK VINA RESULT:      -6.5      0.000      0.000
REMARK  9 active torsions:
REMARK  status: ('A' for Active; 'I' for Inactive)
REMARK    1  A    between atoms: C20_25  and  CA_1 
REMARK    2  A    between atoms: C1_6  and  OL_3 
REMARK    3  A    between atoms: CA1_4  and  OL_3 
REMARK    4  A    between atoms: CA1_4  and  CB1_5 
REMARK    5  A    between atoms: CB1_5  and  NI_26 
REMARK    6  A    between atoms: C4_11  and  C7_12 
REMARK    7  A    between atoms: C20_25  and  C7_12 
REMARK    8  A    between atoms: C7_12  and  C8_13 
REMARK    9  A    between atoms: C18_23  and  C20_25 
ROOT
HETATM    1  C7  CTX  2740       1.543  34.245 235.079  1.00 20.00    -0.013 C 
ENDROOT
BRANCH   1   2
HETATM    2  C20 CTX  2740       2.853  34.332 235.804  1.00 20.00    -0.037 C 
BRANCH   2   3
HETATM    3  C18 CTX  2740       3.627  33.043 236.174  1.00 20.00    -0.029 A 
HETATM    4  C17 CTX  2740       3.785  31.987 235.213  1.00 20.00     0.012 A 
HETATM    5  C16 CTX  2740       4.491  30.809 235.551  1.00 20.00     0.001 A 
HETATM    6  C15 CTX  2740       5.048  30.675 236.849  1.00 20.00     0.000 A 
HETATM    7  C14 CTX  2740       4.897  31.716 237.810  1.00 20.00     0.001 A 
HETATM    8  C19 CTX  2740       4.191  32.894 237.476  1.00 20.00     0.012 A 
ENDBRANCH   2   3
BRANCH   2   9
HETATM    9  CA  CTX  2740       3.592  35.630 236.283  1.00 20.00     0.036 C 
HETATM   10  CB  CTX  2740       2.675  36.795 236.679  1.00 20.00     0.010 C 
ENDBRANCH   2   9
ENDBRANCH   1   2
BRANCH   1  11
HETATM   11  C4  CTX  2740       1.259  34.030 233.513  1.00 20.00    -0.028 A 
HETATM   12  C3  CTX  2740       1.404  35.150 232.593  1.00 20.00     0.014 A 
HETATM   13  C2  CTX  2740       1.213  35.001 231.207  1.00 20.00     0.033 A 
HETATM   14  C1  CTX  2740       0.862  33.698 230.650  1.00 20.00     0.050 A 
HETATM   15  C6  CTX  2740       0.700  32.566 231.548  1.00 20.00     0.092 A 
HETATM   16  C5  CTX  2740       0.901  32.748 232.957  1.00 20.00    -0.008 A 
BRANCH  14  17
HETATM   17  OL  CTX  2740       0.675  33.424 229.289  1.00 20.00    -0.353 OA
BRANCH  17  18
HETATM   18  CA1 CTX  2740       0.900  34.372 228.180  1.00 20.00     0.205 C 
BRANCH  18  19
HETATM   19  CB1 CTX  2740       2.291  34.202 227.566  1.00 20.00     0.297 C 
BRANCH  19  20
HETATM   20  NI  CTX  2740       2.234  33.321 226.296  1.00 20.00     0.082 N 
HETATM   21  C21 CTX  2740       2.568  31.894 226.534  1.00 20.00     0.309 C 
HETATM   22  C22 CTX  2740       0.912  33.422 225.582  1.00 20.00     0.309 C 
ENDBRANCH  19  20
ENDBRANCH  18  19
ENDBRANCH  17  18
ENDBRANCH  14  17
ENDBRANCH   1  11
BRANCH   1  23
HETATM   23  C8  CTX  2740       0.209  34.344 235.812  1.00 20.00    -0.043 A 
HETATM   24  C13 CTX  2740      -0.825  35.253 235.353  1.00 20.00     0.008 A 
HETATM   25  C12 CTX  2740      -2.049  35.359 236.022  1.00 20.00     0.000 A 
HETATM   26  C11 CTX  2740      -2.300  34.564 237.183  1.00 20.00    -0.004 A 
HETATM   27  C10 CTX  2740      -1.312  33.660 237.665  1.00 20.00    -0.022 A 
HETATM   28  C9  CTX  2740      -0.058  33.542 236.994  1.00 20.00     0.066 A 
ENDBRANCH   1  23
TORSDOF 9
ENDMDL
MODEL 2
REMARK VINA RESULT:      -6.4      2.345      5.049
REMARK  9 active torsions:
REMARK  status: ('A' for Active; 'I' for Inactive)
REMARK    1  A    between atoms: C20_25  and  CA_1 
REMARK    2  A    between atoms: C1_6  and  OL_3 
REMARK    3  A    between atoms: CA1_4  and  OL_3 
REMARK    4  A    between atoms: CA1_4  and  CB1_5 
REMARK    5  A    between atoms: CB1_5  and  NI_26 
REMARK    6  A    between atoms: C4_11  and  C7_12 
REMARK    7  A    between atoms: C20_25  and  C7_12 
REMARK    8  A    between atoms: C7_12  and  C8_13 
REMARK    9  A    between atoms: C18_23  and  C20_25 
ROOT
HETATM    1  C7  CTX  2740       1.907  33.514 235.812  1.00 20.00    -0.013 C 
ENDROOT
BRANCH   1   2
HETATM    2  C20 CTX  2740       1.706  34.438 236.977  1.00 20.00    -0.037 C 
BRANCH   2   3
HETATM    3  C18 CTX  2740       0.712  35.621 236.872  1.00 20.00    -0.029 A 
HETATM    4  C17 CTX  2740      -0.681  35.381 236.618  1.00 20.00     0.012 A 
HETATM    5  C16 CTX  2740      -1.589  36.461 236.521  1.00 20.00     0.001 A 
HETATM    6  C15 CTX  2740      -1.116  37.790 236.681  1.00 20.00     0.000 A 
HETATM    7  C14 CTX  2740       0.264  38.039 236.935  1.00 20.00     0.001 A 
HETATM    8  C19 CTX  2740       1.174  36.961 237.030  1.00 20.00     0.012 A 
ENDBRANCH   2   3
BRANCH   2   9
HETATM    9  CA  CTX  2740       2.417  34.378 238.373  1.00 20.00     0.036 C 
HETATM   10  CB  CTX  2740       3.901  34.774 238.369  1.00 20.00     0.010 C 
ENDBRANCH   2   9
ENDBRANCH   1   2
BRANCH   1  11
HETATM   11  C4  CTX  2740       1.480  33.706 234.277  1.00 20.00    -0.028 A 
HETATM   12  C3  CTX  2740       1.558  35.026 233.665  1.00 20.00     0.014 A 
HETATM   13  C2  CTX  2740       1.240  35.237 232.311  1.00 20.00     0.033 A 
HETATM   14  C1  CTX  2740       0.820  34.118 231.473  1.00 20.00     0.050 A 
HETATM   15  C6  CTX  2740       0.723  32.792 232.061  1.00 20.00     0.092 A 
HETATM   16  C5  CTX  2740       1.053  32.607 233.445  1.00 20.00    -0.008 A 
BRANCH  14  17
HETATM   17  OL  CTX  2740       0.506  34.201 230.111  1.00 20.00    -0.353 OA
BRANCH  17  18
HETATM   18  CA1 CTX  2740      -0.725  34.786 229.543  1.00 20.00     0.205 C 
BRANCH  18  19
HETATM   19  CB1 CTX  2740      -0.522  36.247 229.139  1.00 20.00     0.297 C 
BRANCH  19  20
HETATM   20  NI  CTX  2740      -1.591  37.157 229.789  1.00 20.00     0.082 N 
HETATM   21  C21 CTX  2740      -2.838  37.289 228.993  1.00 20.00     0.309 C 
HETATM   22  C22 CTX  2740      -1.928  36.739 231.195  1.00 20.00     0.309 C 
ENDBRANCH  19  20
ENDBRANCH  18  19
ENDBRANCH  17  18
ENDBRANCH  14  17
ENDBRANCH   1  11
BRANCH   1  23
HETATM   23  C8  CTX  2740       2.620  32.174 235.962  1.00 20.00    -0.043 A 
HETATM   24  C13 CTX  2740       3.995  32.012 235.527  1.00 20.00     0.008 A 
HETATM   25  C12 CTX  2740       4.657  30.786 235.651  1.00 20.00     0.000 A 
HETATM   26  C11 CTX  2740       3.977  29.661 236.213  1.00 20.00    -0.004 A 
HETATM   27  C10 CTX  2740       2.628  29.779 236.653  1.00 20.00    -0.022 A 
HETATM   28  C9  CTX  2740       1.940  31.024 236.532  1.00 20.00     0.066 A 
ENDBRANCH   1  23
TORSDOF 9
ENDMDL
MODEL 3
REMARK VINA RESULT:      -6.4      0.866      2.810
REMARK  9 active torsions:
REMARK  status: ('A' for Active; 'I' for Inactive)
REMARK    1  A    between atoms: C20_25  and  CA_1 
REMARK    2  A    between atoms: C1_6  and  OL_3 
REMARK    3  A    between atoms: CA1_4  and  OL_3 
REMARK    4  A    between atoms: CA1_4  and  CB1_5 
REMARK    5  A    between atoms: CB1_5  and  NI_26 
REMARK    6  A    between atoms: C4_11  and  C7_12 
REMARK    7  A    between atoms: C20_25  and  C7_12 
REMARK    8  A    between atoms: C7_12  and  C8_13 
REMARK    9  A    between atoms: C18_23  and  C20_25 
ROOT
HETATM    1  C7  CTX  2740       1.427  34.119 235.030  1.00 20.00    -0.013 C 
ENDROOT
BRANCH   1   2
HETATM    2  C20 CTX  2740       2.708  34.016 235.801  1.00 20.00    -0.037 C 
BRANCH   2   3
HETATM    3  C18 CTX  2740       3.124  35.142 236.780  1.00 20.00    -0.029 A 
HETATM    4  C17 CTX  2740       3.750  34.824 238.033  1.00 20.00     0.012 A 
HETATM    5  C16 CTX  2740       4.129  35.852 238.927  1.00 20.00     0.001 A 
HETATM    6  C15 CTX  2740       3.888  37.207 238.579  1.00 20.00     0.000 A 
HETATM    7  C14 CTX  2740       3.268  37.533 237.339  1.00 20.00     0.001 A 
HETATM    8  C19 CTX  2740       2.887  36.508 236.443  1.00 20.00     0.012 A 
ENDBRANCH   2   3
BRANCH   2   9
HETATM    9  CA  CTX  2740       3.764  32.857 235.743  1.00 20.00     0.036 C 
HETATM   10  CB  CTX  2740       3.198  31.475 235.391  1.00 20.00     0.010 C 
ENDBRANCH   2   9
ENDBRANCH   1   2
BRANCH   1  11
HETATM   11  C4  CTX  2740       1.174  33.958 233.452  1.00 20.00    -0.028 A 
HETATM   12  C3  CTX  2740       1.375  35.099 232.569  1.00 20.00     0.014 A 
HETATM   13  C2  CTX  2740       1.212  34.997 231.176  1.00 20.00     0.033 A 
HETATM   14  C1  CTX  2740       0.834  33.723 230.572  1.00 20.00     0.050 A 
HETATM   15  C6  CTX  2740       0.616  32.571 231.432  1.00 20.00     0.092 A 
HETATM   16  C5  CTX  2740       0.789  32.705 232.851  1.00 20.00    -0.008 A 
BRANCH  14  17
HETATM   17  OL  CTX  2740       0.671  33.494 229.200  1.00 20.00    -0.353 OA
BRANCH  17  18
HETATM   18  CA1 CTX  2740       0.951  34.467 228.125  1.00 20.00     0.205 C 
BRANCH  18  19
HETATM   19  CB1 CTX  2740       2.346  34.266 227.532  1.00 20.00     0.297 C 
BRANCH  19  20
HETATM   20  NI  CTX  2740       2.288  33.388 226.259  1.00 20.00     0.082 N 
HETATM   21  C21 CTX  2740       2.532  31.944 226.509  1.00 20.00     0.309 C 
HETATM   22  C22 CTX  2740       1.002  33.562 225.496  1.00 20.00     0.309 C 
ENDBRANCH  19  20
ENDBRANCH  18  19
ENDBRANCH  17  18
ENDBRANCH  14  17
ENDBRANCH   1  11
BRANCH   1  23
HETATM   23  C8  CTX  2740       0.094  34.397 235.717  1.00 20.00    -0.043 A 
HETATM   24  C13 CTX  2740      -0.325  33.618 236.867  1.00 20.00     0.008 A 
HETATM   25  C12 CTX  2740      -1.549  33.857 237.501  1.00 20.00     0.000 A 
HETATM   26  C11 CTX  2740      -2.415  34.885 237.016  1.00 20.00    -0.004 A 
HETATM   27  C10 CTX  2740      -2.041  35.673 235.891  1.00 20.00    -0.022 A 
HETATM   28  C9  CTX  2740      -0.796  35.439 235.233  1.00 20.00     0.066 A 
ENDBRANCH   1  23
TORSDOF 9
ENDMDL
MODEL 4
REMARK VINA RESULT:      -6.4      0.984      1.706
REMARK  9 active torsions:
REMARK  status: ('A' for Active; 'I' for Inactive)
REMARK    1  A    between atoms: C20_25  and  CA_1 
REMARK    2  A    between atoms: C1_6  and  OL_3 
REMARK    3  A    between atoms: CA1_4  and  OL_3 
REMARK    4  A    between atoms: CA1_4  and  CB1_5 
REMARK    5  A    between atoms: CB1_5  and  NI_26 
REMARK    6  A    between atoms: C4_11  and  C7_12 
REMARK    7  A    between atoms: C20_25  and  C7_12 
REMARK    8  A    between atoms: C7_12  and  C8_13 
REMARK    9  A    between atoms: C18_23  and  C20_25 
ROOT
HETATM    1  C7  CTX  2740       1.500  34.338 235.151  1.00 20.00    -0.013 C 
ENDROOT
BRANCH   1   2
HETATM    2  C20 CTX  2740       2.804  34.435 235.886  1.00 20.00    -0.037 C 
BRANCH   2   3
HETATM    3  C18 CTX  2740       3.597  33.153 236.239  1.00 20.00    -0.029 A 
HETATM    4  C17 CTX  2740       4.175  32.990 237.544  1.00 20.00     0.012 A 
HETATM    5  C16 CTX  2740       4.900  31.820 237.866  1.00 20.00     0.001 A 
HETATM    6  C15 CTX  2740       5.055  30.800 236.892  1.00 20.00     0.000 A 
HETATM    7  C14 CTX  2740       4.485  30.951 235.594  1.00 20.00     0.001 A 
HETATM    8  C19 CTX  2740       3.760  32.120 235.268  1.00 20.00     0.012 A 
ENDBRANCH   2   3
BRANCH   2   9
HETATM    9  CA  CTX  2740       3.517  35.736 236.392  1.00 20.00     0.036 C 
HETATM   10  CB  CTX  2740       2.713  36.575 237.395  1.00 20.00     0.010 C 
ENDBRANCH   2   9
ENDBRANCH   1   2
BRANCH   1  11
HETATM   11  C4  CTX  2740       1.229  34.048 233.595  1.00 20.00    -0.028 A 
HETATM   12  C3  CTX  2740       1.348  35.130 232.627  1.00 20.00     0.014 A 
HETATM   13  C2  CTX  2740       1.166  34.916 231.249  1.00 20.00     0.033 A 
HETATM   14  C1  CTX  2740       0.852  33.581 230.748  1.00 20.00     0.050 A 
HETATM   15  C6  CTX  2740       0.718  32.485 231.694  1.00 20.00     0.092 A 
HETATM   16  C5  CTX  2740       0.908  32.733 233.095  1.00 20.00    -0.008 A 
BRANCH  14  17
HETATM   17  OL  CTX  2740       0.678  33.243 229.400  1.00 20.00    -0.353 OA
BRANCH  17  18
HETATM   18  CA1 CTX  2740      -0.139  33.989 228.423  1.00 20.00     0.205 C 
BRANCH  18  19
HETATM   19  CB1 CTX  2740       0.667  34.352 227.174  1.00 20.00     0.297 C 
BRANCH  19  20
HETATM   20  NI  CTX  2740       1.253  35.779 227.286  1.00 20.00     0.082 N 
HETATM   21  C21 CTX  2740       0.482  36.680 228.181  1.00 20.00     0.309 C 
HETATM   22  C22 CTX  2740       2.702  35.778 227.691  1.00 20.00     0.309 C 
ENDBRANCH  19  20
ENDBRANCH  18  19
ENDBRANCH  17  18
ENDBRANCH  14  17
ENDBRANCH   1  11
BRANCH   1  23
HETATM   23  C8  CTX  2740       0.161  34.504 235.862  1.00 20.00    -0.043 A 
HETATM   24  C13 CTX  2740      -0.659  35.680 235.637  1.00 20.00     0.008 A 
HETATM   25  C12 CTX  2740      -1.885  35.847 236.290  1.00 20.00     0.000 A 
HETATM   26  C11 CTX  2740      -2.351  34.849 237.201  1.00 20.00    -0.004 A 
HETATM   27  C10 CTX  2740      -1.577  33.680 237.448  1.00 20.00    -0.022 A 
HETATM   28  C9  CTX  2740      -0.323  33.497 236.791  1.00 20.00     0.066 A 
ENDBRANCH   1  23
TORSDOF 9
ENDMDL
MODEL 5
REMARK VINA RESULT:      -6.3      1.975      3.830
REMARK  9 active torsions:
REMARK  status: ('A' for Active; 'I' for Inactive)
REMARK    1  A    between atoms: C20_25  and  CA_1 
REMARK    2  A    between atoms: C1_6  and  OL_3 
REMARK    3  A    between atoms: CA1_4  and  OL_3 
REMARK    4  A    between atoms: CA1_4  and  CB1_5 
REMARK    5  A    between atoms: CB1_5  and  NI_26 
REMARK    6  A    between atoms: C4_11  and  C7_12 
REMARK    7  A    between atoms: C20_25  and  C7_12 
REMARK    8  A    between atoms: C7_12  and  C8_13 
REMARK    9  A    between atoms: C18_23  and  C20_25 
ROOT
HETATM    1  C7  CTX  2740       1.468  34.227 235.153  1.00 20.00    -0.013 C 
ENDROOT
BRANCH   1   2
HETATM    2  C20 CTX  2740       2.749  34.097 235.922  1.00 20.00    -0.037 C 
BRANCH   2   3
HETATM    3  C18 CTX  2740       3.179  35.204 236.916  1.00 20.00    -0.029 A 
HETATM    4  C17 CTX  2740       3.719  34.859 238.201  1.00 20.00     0.012 A 
HETATM    5  C16 CTX  2740       4.110  35.870 239.109  1.00 20.00     0.001 A 
HETATM    6  C15 CTX  2740       3.969  37.234 238.743  1.00 20.00     0.000 A 
HETATM    7  C14 CTX  2740       3.436  37.587 237.470  1.00 20.00     0.001 A 
HETATM    8  C19 CTX  2740       3.042  36.579 236.560  1.00 20.00     0.012 A 
ENDBRANCH   2   3
BRANCH   2   9
HETATM    9  CA  CTX  2740       3.791  32.927 235.846  1.00 20.00     0.036 C 
HETATM   10  CB  CTX  2740       3.217  31.568 235.419  1.00 20.00     0.010 C 
ENDBRANCH   2   9
ENDBRANCH   1   2
BRANCH   1  11
HETATM   11  C4  CTX  2740       1.215  34.110 233.572  1.00 20.00    -0.028 A 
HETATM   12  C3  CTX  2740       0.660  32.882 233.018  1.00 20.00     0.014 A 
HETATM   13  C2  CTX  2740       0.377  32.748 231.647  1.00 20.00     0.033 A 
HETATM   14  C1  CTX  2740       0.632  33.857 230.732  1.00 20.00     0.050 A 
HETATM   15  C6  CTX  2740       1.196  35.090 231.257  1.00 20.00     0.092 A 
HETATM   16  C5  CTX  2740       1.476  35.198 232.661  1.00 20.00    -0.008 A 
BRANCH  14  17
HETATM   17  OL  CTX  2740       0.365  33.849 229.358  1.00 20.00    -0.353 OA
BRANCH  17  18
HETATM   18  CA1 CTX  2740      -0.487  34.818 228.640  1.00 20.00     0.205 C 
BRANCH  18  19
HETATM   19  CB1 CTX  2740      -1.917  34.823 229.184  1.00 20.00     0.297 C 
BRANCH  19  20
HETATM   20  NI  CTX  2740      -2.284  36.208 229.768  1.00 20.00     0.082 N 
HETATM   21  C21 CTX  2740      -2.308  36.251 231.252  1.00 20.00     0.309 C 
HETATM   22  C22 CTX  2740      -1.403  37.309 229.241  1.00 20.00     0.309 C 
ENDBRANCH  19  20
ENDBRANCH  18  19
ENDBRANCH  17  18
ENDBRANCH  14  17
ENDBRANCH   1  11
BRANCH   1  23
HETATM   23  C8  CTX  2740       0.136  34.491 235.847  1.00 20.00    -0.043 A 
HETATM   24  C13 CTX  2740      -0.390  33.555 236.823  1.00 20.00     0.008 A 
HETATM   25  C12 CTX  2740      -1.615  33.781 237.461  1.00 20.00     0.000 A 
HETATM   26  C11 CTX  2740      -2.374  34.953 237.153  1.00 20.00    -0.004 A 
HETATM   27  C10 CTX  2740      -1.892  35.896 236.202  1.00 20.00    -0.022 A 
HETATM   28  C9  CTX  2740      -0.645  35.677 235.543  1.00 20.00     0.066 A 
ENDBRANCH   1  23
TORSDOF 9
ENDMDL
MODEL 6
REMARK VINA RESULT:      -6.3      1.338      3.734
REMARK  9 active torsions:
REMARK  status: ('A' for Active; 'I' for Inactive)
REMARK    1  A    between atoms: C20_25  and  CA_1 
REMARK    2  A    between atoms: C1_6  and  OL_3 
REMARK    3  A    between atoms: CA1_4  and  OL_3 
REMARK    4  A    between atoms: CA1_4  and  CB1_5 
REMARK    5  A    between atoms: CB1_5  and  NI_26 
REMARK    6  A    between atoms: C4_11  and  C7_12 
REMARK    7  A    between atoms: C20_25  and  C7_12 
REMARK    8  A    between atoms: C7_12  and  C8_13 
REMARK    9  A    between atoms: C18_23  and  C20_25 
ROOT
HETATM    1  C7  CTX  2740       1.535  33.768 235.357  1.00 20.00    -0.013 C 
ENDROOT
BRANCH   1   2
HETATM    2  C20 CTX  2740       1.177  34.788 236.396  1.00 20.00    -0.037 C 
BRANCH   2   3
HETATM    3  C18 CTX  2740       2.289  35.532 237.177  1.00 20.00    -0.029 A 
HETATM    4  C17 CTX  2740       2.716  36.840 236.767  1.00 20.00     0.012 A 
HETATM    5  C16 CTX  2740       3.732  37.519 237.479  1.00 20.00     0.001 A 
HETATM    6  C15 CTX  2740       4.330  36.900 238.608  1.00 20.00     0.000 A 
HETATM    7  C14 CTX  2740       3.913  35.602 239.023  1.00 20.00     0.001 A 
HETATM    8  C19 CTX  2740       2.898  34.920 238.313  1.00 20.00     0.012 A 
ENDBRANCH   2   3
BRANCH   2   9
HETATM    9  CA  CTX  2740      -0.261  35.228 236.843  1.00 20.00     0.036 C 
HETATM   10  CB  CTX  2740      -1.185  34.086 237.289  1.00 20.00     0.010 C 
ENDBRANCH   2   9
ENDBRANCH   1   2
BRANCH   1  11
HETATM   11  C4  CTX  2740       1.260  33.788 233.775  1.00 20.00    -0.028 A 
HETATM   12  C3  CTX  2740       1.357  35.043 233.042  1.00 20.00     0.014 A 
HETATM   13  C2  CTX  2740       1.171  35.105 231.649  1.00 20.00     0.033 A 
HETATM   14  C1  CTX  2740       0.876  33.892 230.892  1.00 20.00     0.050 A 
HETATM   15  C6  CTX  2740       0.763  32.628 231.602  1.00 20.00     0.092 A 
HETATM   16  C5  CTX  2740       0.957  32.595 233.024  1.00 20.00    -0.008 A 
BRANCH  14  17
HETATM   17  OL  CTX  2740       0.700  33.826 229.505  1.00 20.00    -0.353 OA
BRANCH  17  18
HETATM   18  CA1 CTX  2740       1.639  34.347 228.491  1.00 20.00     0.205 C 
BRANCH  18  19
HETATM   19  CB1 CTX  2740       1.139  34.080 227.070  1.00 20.00     0.297 C 
BRANCH  19  20
HETATM   20  NI  CTX  2740       2.247  33.437 226.203  1.00 20.00     0.082 N 
HETATM   21  C21 CTX  2740       2.540  32.022 226.549  1.00 20.00     0.309 C 
HETATM   22  C22 CTX  2740       1.968  33.552 224.729  1.00 20.00     0.309 C 
ENDBRANCH  19  20
ENDBRANCH  18  19
ENDBRANCH  17  18
ENDBRANCH  14  17
ENDBRANCH   1  11
BRANCH   1  23
HETATM   23  C8  CTX  2740       2.283  32.487 235.711  1.00 20.00    -0.043 A 
HETATM   24  C13 CTX  2740       1.593  31.372 236.332  1.00 20.00     0.008 A 
HETATM   25  C12 CTX  2740       2.270  30.195 236.669  1.00 20.00     0.000 A 
HETATM   26  C11 CTX  2740       3.669  30.075 236.404  1.00 20.00    -0.004 A 
HETATM   27  C10 CTX  2740       4.383  31.146 235.795  1.00 20.00    -0.022 A 
HETATM   28  C9  CTX  2740       3.706  32.353 235.447  1.00 20.00     0.066 A 
ENDBRANCH   1  23
TORSDOF 9
ENDMDL
MODEL 7
REMARK VINA RESULT:      -6.3      2.099      5.051
REMARK  9 active torsions:
REMARK  status: ('A' for Active; 'I' for Inactive)
REMARK    1  A    between atoms: C20_25  and  CA_1 
REMARK    2  A    between atoms: C1_6  and  OL_3 
REMARK    3  A    between atoms: CA1_4  and  OL_3 
REMARK    4  A    between atoms: CA1_4  and  CB1_5 
REMARK    5  A    between atoms: CB1_5  and  NI_26 
REMARK    6  A    between atoms: C4_11  and  C7_12 
REMARK    7  A    between atoms: C20_25  and  C7_12 
REMARK    8  A    between atoms: C7_12  and  C8_13 
REMARK    9  A    between atoms: C18_23  and  C20_25 
ROOT
HETATM    1  C7  CTX  2740       0.858  33.215 235.089  1.00 20.00    -0.013 C 
ENDROOT
BRANCH   1   2
HETATM    2  C20 CTX  2740      -0.028  33.793 236.152  1.00 20.00    -0.037 C 
BRANCH   2   3
HETATM    3  C18 CTX  2740       0.020  35.308 236.470  1.00 20.00    -0.029 A 
HETATM    4  C17 CTX  2740      -1.158  36.118 236.336  1.00 20.00     0.012 A 
HETATM    5  C16 CTX  2740      -1.113  37.502 236.627  1.00 20.00     0.001 A 
HETATM    6  C15 CTX  2740       0.105  38.089 237.056  1.00 20.00     0.000 A 
HETATM    7  C14 CTX  2740       1.280  37.294 237.192  1.00 20.00     0.001 A 
HETATM    8  C19 CTX  2740       1.239  35.911 236.902  1.00 20.00     0.012 A 
ENDBRANCH   2   3
BRANCH   2   9
HETATM    9  CA  CTX  2740      -1.057  33.026 237.054  1.00 20.00     0.036 C 
HETATM   10  CB  CTX  2740      -2.220  32.365 236.302  1.00 20.00     0.010 C 
ENDBRANCH   2   9
ENDBRANCH   1   2
BRANCH   1  11
HETATM   11  C4  CTX  2740       0.885  33.516 233.512  1.00 20.00    -0.028 A 
HETATM   12  C3  CTX  2740       1.223  34.852 233.038  1.00 20.00     0.014 A 
HETATM   13  C2  CTX  2740       1.305  35.154 231.667  1.00 20.00     0.033 A 
HETATM   14  C1  CTX  2740       1.054  34.117 230.670  1.00 20.00     0.050 A 
HETATM   15  C6  CTX  2740       0.704  32.778 231.117  1.00 20.00     0.092 A 
HETATM   16  C5  CTX  2740       0.626  32.500 232.522  1.00 20.00    -0.008 A 
BRANCH  14  17
HETATM   17  OL  CTX  2740       1.134  34.292 229.283  1.00 20.00    -0.353 OA
BRANCH  17  18
HETATM   18  CA1 CTX  2740       0.884  35.553 228.557  1.00 20.00     0.205 C 
BRANCH  18  19
HETATM   19  CB1 CTX  2740      -0.613  35.836 228.417  1.00 20.00     0.297 C 
BRANCH  19  20
HETATM   20  NI  CTX  2740      -1.073  36.910 229.431  1.00 20.00     0.082 N 
HETATM   21  C21 CTX  2740      -1.521  38.180 228.804  1.00 20.00     0.309 C 
HETATM   22  C22 CTX  2740      -2.135  36.402 230.369  1.00 20.00     0.309 C 
ENDBRANCH  19  20
ENDBRANCH  18  19
ENDBRANCH  17  18
ENDBRANCH  14  17
ENDBRANCH   1  11
BRANCH   1  23
HETATM   23  C8  CTX  2740       1.945  32.196 235.415  1.00 20.00    -0.043 A 
HETATM   24  C13 CTX  2740       1.610  30.804 235.651  1.00 20.00     0.008 A 
HETATM   25  C12 CTX  2740       2.597  29.861 235.959  1.00 20.00     0.000 A 
HETATM   26  C11 CTX  2740       3.966  30.263 236.048  1.00 20.00    -0.004 A 
HETATM   27  C10 CTX  2740       4.336  31.619 235.822  1.00 20.00    -0.022 A 
HETATM   28  C9  CTX  2740       3.340  32.592 235.508  1.00 20.00     0.066 A 
ENDBRANCH   1  23
TORSDOF 9
ENDMDL
MODEL 8
REMARK VINA RESULT:      -6.2      1.673      3.385
REMARK  9 active torsions:
REMARK  status: ('A' for Active; 'I' for Inactive)
REMARK    1  A    between atoms: C20_25  and  CA_1 
REMARK    2  A    between atoms: C1_6  and  OL_3 
REMARK    3  A    between atoms: CA1_4  and  OL_3 
REMARK    4  A    between atoms: CA1_4  and  CB1_5 
REMARK    5  A    between atoms: CB1_5  and  NI_26 
REMARK    6  A    between atoms: C4_11  and  C7_12 
REMARK    7  A    between atoms: C20_25  and  C7_12 
REMARK    8  A    between atoms: C7_12  and  C8_13 
REMARK    9  A    between atoms: C18_23  and  C20_25 
ROOT
HETATM    1  C7  CTX  2740       0.904  33.964 233.830  1.00 20.00    -0.013 C 
ENDROOT
BRANCH   1   2
HETATM    2  C20 CTX  2740       2.010  33.881 234.840  1.00 20.00    -0.037 C 
BRANCH   2   3
HETATM    3  C18 CTX  2740       2.426  35.136 235.646  1.00 20.00    -0.029 A 
HETATM    4  C17 CTX  2740       3.617  35.124 236.449  1.00 20.00     0.012 A 
HETATM    5  C16 CTX  2740       3.997  36.270 237.185  1.00 20.00     0.001 A 
HETATM    6  C15 CTX  2740       3.195  37.439 237.126  1.00 20.00     0.000 A 
HETATM    7  C14 CTX  2740       2.012  37.462 236.332  1.00 20.00     0.001 A 
HETATM    8  C19 CTX  2740       1.629  36.318 235.595  1.00 20.00     0.012 A 
ENDBRANCH   2   3
BRANCH   2   9
HETATM    9  CA  CTX  2740       2.869  32.622 235.210  1.00 20.00     0.036 C 
HETATM   10  CB  CTX  2740       2.480  31.329 234.482  1.00 20.00     0.010 C 
ENDBRANCH   2   9
ENDBRANCH   1   2
BRANCH   1  11
HETATM   11  C4  CTX  2740       0.987  33.925 232.227  1.00 20.00    -0.028 A 
HETATM   12  C3  CTX  2740       0.539  32.738 231.510  1.00 20.00     0.014 A 
HETATM   13  C2  CTX  2740       0.548  32.673 230.105  1.00 20.00     0.033 A 
HETATM   14  C1  CTX  2740       1.009  33.814 229.319  1.00 20.00     0.050 A 
HETATM   15  C6  CTX  2740       1.471  35.007 230.010  1.00 20.00     0.092 A 
HETATM   16  C5  CTX  2740       1.452  35.044 231.445  1.00 20.00    -0.008 A 
BRANCH  14  17
HETATM   17  OL  CTX  2740       1.035  33.875 227.920  1.00 20.00    -0.353 OA
BRANCH  17  18
HETATM   18  CA1 CTX  2740       2.246  33.812 227.077  1.00 20.00     0.205 C 
BRANCH  18  19
HETATM   19  CB1 CTX  2740       2.325  32.496 226.301  1.00 20.00     0.297 C 
BRANCH  19  20
HETATM   20  NI  CTX  2740       2.110  32.731 224.787  1.00 20.00     0.082 N 
HETATM   21  C21 CTX  2740       2.342  31.526 223.950  1.00 20.00     0.309 C 
HETATM   22  C22 CTX  2740       0.755  33.311 224.479  1.00 20.00     0.309 C 
ENDBRANCH  19  20
ENDBRANCH  18  19
ENDBRANCH  17  18
ENDBRANCH  14  17
ENDBRANCH   1  11
BRANCH   1  23
HETATM   23  C8  CTX  2740      -0.558  34.089 234.245  1.00 20.00    -0.043 A 
HETATM   24  C13 CTX  2740      -1.148  33.143 235.175  1.00 20.00     0.008 A 
HETATM   25  C12 CTX  2740      -2.490  33.242 235.558  1.00 20.00     0.000 A 
HETATM   26  C11 CTX  2740      -3.309  34.288 235.029  1.00 20.00    -0.004 A 
HETATM   27  C10 CTX  2740      -2.767  35.235 234.115  1.00 20.00    -0.022 A 
HETATM   28  C9  CTX  2740      -1.400  35.147 233.714  1.00 20.00     0.066 A 
ENDBRANCH   1  23
TORSDOF 9
ENDMDL
MODEL 9
REMARK VINA RESULT:      -6.2      2.094      4.355
REMARK  9 active torsions:
REMARK  status: ('A' for Active; 'I' for Inactive)
REMARK    1  A    between atoms: C20_25  and  CA_1 
REMARK    2  A    between atoms: C1_6  and  OL_3 
REMARK    3  A    between atoms: CA1_4  and  OL_3 
REMARK    4  A    between atoms: CA1_4  and  CB1_5 
REMARK    5  A    between atoms: CB1_5  and  NI_26 
REMARK    6  A    between atoms: C4_11  and  C7_12 
REMARK    7  A    between atoms: C20_25  and  C7_12 
REMARK    8  A    between atoms: C7_12  and  C8_13 
REMARK    9  A    between atoms: C18_23  and  C20_25 
ROOT
HETATM    1  C7  CTX  2740       1.507  33.837 235.332  1.00 20.00    -0.013 C 
ENDROOT
BRANCH   1   2
HETATM    2  C20 CTX  2740       1.157  34.868 236.364  1.00 20.00    -0.037 C 
BRANCH   2   3
HETATM    3  C18 CTX  2740       2.274  35.585 237.161  1.00 20.00    -0.029 A 
HETATM    4  C17 CTX  2740       2.706  36.903 236.785  1.00 20.00     0.012 A 
HETATM    5  C16 CTX  2740       3.727  37.558 237.513  1.00 20.00     0.001 A 
HETATM    6  C15 CTX  2740       4.325  36.906 238.622  1.00 20.00     0.000 A 
HETATM    7  C14 CTX  2740       3.904  35.599 239.003  1.00 20.00     0.001 A 
HETATM    8  C19 CTX  2740       2.885  34.941 238.278  1.00 20.00     0.012 A 
ENDBRANCH   2   3
BRANCH   2   9
HETATM    9  CA  CTX  2740      -0.276  35.345 236.786  1.00 20.00     0.036 C 
HETATM   10  CB  CTX  2740      -1.425  34.425 236.351  1.00 20.00     0.010 C 
ENDBRANCH   2   9
ENDBRANCH   1   2
BRANCH   1  11
HETATM   11  C4  CTX  2740       1.253  33.858 233.747  1.00 20.00    -0.028 A 
HETATM   12  C3  CTX  2740       1.392  35.107 233.010  1.00 20.00     0.014 A 
HETATM   13  C2  CTX  2740       1.227  35.168 231.615  1.00 20.00     0.033 A 
HETATM   14  C1  CTX  2740       0.911  33.959 230.859  1.00 20.00     0.050 A 
HETATM   15  C6  CTX  2740       0.756  32.701 231.572  1.00 20.00     0.092 A 
HETATM   16  C5  CTX  2740       0.930  32.669 232.996  1.00 20.00    -0.008 A 
BRANCH  14  17
HETATM   17  OL  CTX  2740       0.752  33.892 229.470  1.00 20.00    -0.353 OA
BRANCH  17  18
HETATM   18  CA1 CTX  2740      -0.281  34.597 228.685  1.00 20.00     0.205 C 
BRANCH  18  19
HETATM   19  CB1 CTX  2740      -1.677  34.390 229.276  1.00 20.00     0.297 C 
BRANCH  19  20
HETATM   20  NI  CTX  2740      -2.232  35.709 229.863  1.00 20.00     0.082 N 
HETATM   21  C21 CTX  2740      -2.466  35.667 231.330  1.00 20.00     0.309 C 
HETATM   22  C22 CTX  2740      -1.378  36.899 229.518  1.00 20.00     0.309 C 
ENDBRANCH  19  20
ENDBRANCH  18  19
ENDBRANCH  17  18
ENDBRANCH  14  17
ENDBRANCH   1  11
BRANCH   1  23
HETATM   23  C8  CTX  2740       2.222  32.541 235.700  1.00 20.00    -0.043 A 
HETATM   24  C13 CTX  2740       3.634  32.367 235.417  1.00 20.00     0.008 A 
HETATM   25  C12 CTX  2740       4.300  31.180 235.742  1.00 20.00     0.000 A 
HETATM   26  C11 CTX  2740       3.586  30.108 236.364  1.00 20.00    -0.004 A 
HETATM   27  C10 CTX  2740       2.200  30.240 236.659  1.00 20.00    -0.022 A 
HETATM   28  C9  CTX  2740       1.508  31.445 236.332  1.00 20.00     0.066 A 
ENDBRANCH   1  23
TORSDOF 9
ENDMDL
