MODEL 1
REMARK VINA RESULT:      -8.2      0.000      0.000
REMARK  13 active torsions:
REMARK  status: ('A' for Active; 'I' for Inactive)
REMARK    1  A    between atoms: CAH_13  and  CBG_12 
REMARK    2  A    between atoms: CAG_14  and  CBF_15 
REMARK    3  A    between atoms: CBI_20  and  CBM_21 
REMARK    4  A    between atoms: CAW_31  and  CBM_21 
REMARK    5  A    between atoms: CBM_21  and  SBC_22 
REMARK    6  A    between atoms: CAZ_23  and  SBC_22 
REMARK    7  A    between atoms: CAZ_23  and  CBO_24 
REMARK    8  A    between atoms: CBA_27  and  CBO_24 
REMARK    9  A    between atoms: CBA_27  and  CBD_28 
REMARK   10  A    between atoms: CAV_32  and  CAW_31 
REMARK   11  A    between atoms: CAV_32  and  CBH_33 
REMARK   12  A    between atoms: CBJ_38  and  CBN_39 
REMARK   13  A    between atoms: CBN_39  and  OAE_42 
ROOT
HETATM    1  CBM MTK  5352      -0.746  34.127 234.936  1.00 20.00     0.080 C 
ENDROOT
BRANCH   1   2
HETATM    2  CAW MTK  5352       0.474  34.488 234.123  1.00 20.00     0.025 C 
BRANCH   2   3
HETATM    3  CAV MTK  5352       1.150  33.297 233.479  1.00 20.00     0.040 C 
BRANCH   3   4
HETATM    4  CBH MTK  5352       0.984  33.453 231.960  1.00 20.00    -0.049 A 
HETATM    5  CAM MTK  5352       1.300  34.758 231.502  1.00 20.00     0.007 A 
HETATM    6  CAI MTK  5352       1.213  35.107 230.151  1.00 20.00     0.001 A 
HETATM    7  CAJ MTK  5352       0.798  34.147 229.210  1.00 20.00     0.001 A 
HETATM    8  CAP MTK  5352       0.475  32.834 229.628  1.00 20.00     0.011 A 
HETATM    9  CBJ MTK  5352       0.553  32.436 230.996  1.00 20.00    -0.019 A 
BRANCH   9  10
HETATM   10  CBN MTK  5352       0.160  30.917 231.336  1.00 20.00     0.078 C 
HETATM   11  CAA MTK  5352      -1.075  30.778 232.249  1.00 20.00     0.051 C 
HETATM   12  CAB MTK  5352      -0.082  30.144 230.038  1.00 20.00     0.051 C 
BRANCH  10  13
HETATM   13  OAE MTK  5352       1.237  30.274 232.031  1.00 20.00    -0.386 OA
ATOM     14  HAE MTK  5352       0.894  30.045 232.887  1.00  0.00     0.211 HD
ENDBRANCH  10  13
ENDBRANCH   9  10
ENDBRANCH   3   4
ENDBRANCH   2   3
ENDBRANCH   1   2
BRANCH   1  15
HETATM   15  CBI MTK  5352      -1.957  34.278 234.025  1.00 20.00    -0.043 A 
HETATM   16  CAN MTK  5352      -2.980  33.311 234.126  1.00 20.00     0.008 A 
HETATM   17  CAK MTK  5352      -4.050  33.334 233.201  1.00 20.00     0.001 A 
HETATM   18  CAL MTK  5352      -4.095  34.320 232.188  1.00 20.00     0.011 A 
HETATM   19  CBF MTK  5352      -3.079  35.302 232.089  1.00 20.00    -0.036 A 
HETATM   20  CAT MTK  5352      -2.008  35.282 233.017  1.00 20.00     0.019 A 
BRANCH  19  21
HETATM   21  CAG MTK  5352      -3.184  36.251 231.065  1.00 20.00     0.013 C 
HETATM   22  CAH MTK  5352      -2.100  36.816 230.377  1.00 20.00     0.030 C 
BRANCH  22  23
HETATM   23  CBG MTK  5352      -2.243  37.738 229.337  1.00 20.00     0.032 A 
HETATM   24  CAQ MTK  5352      -3.385  37.774 228.474  1.00 20.00     0.030 A 
HETATM   25  CAS MTK  5352      -3.432  38.748 227.438  1.00 20.00     0.016 A 
HETATM   26  CBK MTK  5352      -2.356  39.668 227.274  1.00 20.00    -0.009 A 
HETATM   27  CAR MTK  5352      -2.367  40.654 226.251  1.00 20.00     0.015 A 
HETATM   28  CBL MTK  5352      -1.236  39.586 228.176  1.00 20.00     0.044 A 
HETATM   29  CAO MTK  5352      -1.264  41.559 226.127  1.00 20.00     0.025 A 
HETATM   30  CBE MTK  5352      -0.159  41.481 227.020  1.00 20.00     0.036 A 
HETATM   31  CAU MTK  5352      -0.144  40.497 228.043  1.00 20.00     0.054 A 
HETATM   32 CLAF MTK  5352       1.164  42.565 226.865  1.00 20.00    -0.084 Cl
HETATM   33  NBB MTK  5352      -1.226  38.635 229.157  1.00 20.00    -0.356 N 
ATOM     34  HBB MTK  5352      -0.423  38.592 229.784  1.00  0.00     0.166 HD
ENDBRANCH  22  23
ENDBRANCH  19  21
ENDBRANCH   1  15
BRANCH   1  35
HETATM   35  SBC MTK  5352      -0.884  35.187 236.389  1.00 20.00    -0.159 SA
BRANCH  35  36
HETATM   36  CAZ MTK  5352       0.902  35.155 236.734  1.00 20.00     0.084 C 
BRANCH  36  37
HETATM   37  CBO MTK  5352       1.500  36.477 237.200  1.00 20.00    -0.022 A 
HETATM   38  CAX MTK  5352       1.649  37.483 236.040  1.00 20.00     0.011 A 
HETATM   39  CAY MTK  5352       0.851  37.817 237.330  1.00 20.00     0.011 A 
BRANCH  37  40
HETATM   40  CBA MTK  5352       2.762  36.249 238.037  1.00 20.00     0.123 C 
BRANCH  40  41
HETATM   41  CBD MTK  5352       4.014  36.332 237.158  1.00 20.00     0.173 C 
HETATM   42  OAD MTK  5352       4.820  37.257 237.321  1.00 20.00    -0.648 OA
HETATM   43  OAC MTK  5352       4.224  35.465 236.293  1.00 20.00    -0.648 OA
ENDBRANCH  40  41
ENDBRANCH  37  40
ENDBRANCH  36  37
ENDBRANCH  35  36
ENDBRANCH   1  35
TORSDOF 13
ENDMDL
MODEL 2
REMARK VINA RESULT:      -8.1      2.480      5.158
REMARK  13 active torsions:
REMARK  status: ('A' for Active; 'I' for Inactive)
REMARK    1  A    between atoms: CAH_13  and  CBG_12 
REMARK    2  A    between atoms: CAG_14  and  CBF_15 
REMARK    3  A    between atoms: CBI_20  and  CBM_21 
REMARK    4  A    between atoms: CAW_31  and  CBM_21 
REMARK    5  A    between atoms: CBM_21  and  SBC_22 
REMARK    6  A    between atoms: CAZ_23  and  SBC_22 
REMARK    7  A    between atoms: CAZ_23  and  CBO_24 
REMARK    8  A    between atoms: CBA_27  and  CBO_24 
REMARK    9  A    between atoms: CBA_27  and  CBD_28 
REMARK   10  A    between atoms: CAV_32  and  CAW_31 
REMARK   11  A    between atoms: CAV_32  and  CBH_33 
REMARK   12  A    between atoms: CBJ_38  and  CBN_39 
REMARK   13  A    between atoms: CBN_39  and  OAE_42 
ROOT
HETATM    1  CBM MTK  5352       1.329  33.039 235.109  1.00 20.00     0.080 C 
ENDROOT
BRANCH   1   2
HETATM    2  CAW MTK  5352       2.107  34.296 235.415  1.00 20.00     0.025 C 
BRANCH   2   3
HETATM    3  CAV MTK  5352       3.484  34.036 235.987  1.00 20.00     0.040 C 
BRANCH   3   4
HETATM    4  CBH MTK  5352       3.693  35.041 237.129  1.00 20.00    -0.049 A 
HETATM    5  CAM MTK  5352       3.790  36.381 236.675  1.00 20.00     0.007 A 
HETATM    6  CAI MTK  5352       3.983  37.448 237.557  1.00 20.00     0.001 A 
HETATM    7  CAJ MTK  5352       4.089  37.198 238.938  1.00 20.00     0.001 A 
HETATM    8  CAP MTK  5352       3.996  35.874 239.430  1.00 20.00     0.011 A 
HETATM    9  CBJ MTK  5352       3.796  34.758 238.564  1.00 20.00    -0.019 A 
BRANCH   9  10
HETATM   10  CBN MTK  5352       3.708  33.310 239.251  1.00 20.00     0.078 C 
HETATM   11  CAA MTK  5352       2.322  32.644 239.137  1.00 20.00     0.051 C 
HETATM   12  CAB MTK  5352       4.764  32.385 238.643  1.00 20.00     0.051 C 
BRANCH  10  13
HETATM   13  OAE MTK  5352       3.978  33.414 240.656  1.00 20.00    -0.386 OA
ATOM     14  HAE MTK  5352       4.904  33.223 240.758  1.00  0.00     0.211 HD
ENDBRANCH  10  13
ENDBRANCH   9  10
ENDBRANCH   3   4
ENDBRANCH   2   3
ENDBRANCH   1   2
BRANCH   1  15
HETATM   15  CBI MTK  5352       0.911  33.111 233.647  1.00 20.00    -0.043 A 
HETATM   16  CAN MTK  5352       1.099  31.960 232.852  1.00 20.00     0.008 A 
HETATM   17  CAK MTK  5352       0.859  32.032 231.460  1.00 20.00     0.001 A 
HETATM   18  CAL MTK  5352       0.432  33.244 230.872  1.00 20.00     0.011 A 
HETATM   19  CBF MTK  5352       0.228  34.400 231.666  1.00 20.00    -0.036 A 
HETATM   20  CAT MTK  5352       0.465  34.330 233.061  1.00 20.00     0.019 A 
BRANCH  19  21
HETATM   21  CAG MTK  5352      -0.199  35.568 231.022  1.00 20.00     0.013 C 
HETATM   22  CAH MTK  5352      -0.665  35.634 229.701  1.00 20.00     0.030 C 
BRANCH  22  23
HETATM   23  CBG MTK  5352      -1.115  36.813 229.100  1.00 20.00     0.032 A 
HETATM   24  CAQ MTK  5352      -2.501  37.120 228.918  1.00 20.00     0.030 A 
HETATM   25  CAS MTK  5352      -2.856  38.345 228.288  1.00 20.00     0.016 A 
HETATM   26  CBK MTK  5352      -1.840  39.244 227.851  1.00 20.00    -0.009 A 
HETATM   27  CAR MTK  5352      -2.156  40.476 227.217  1.00 20.00     0.015 A 
HETATM   28  CBL MTK  5352      -0.462  38.883 228.066  1.00 20.00     0.044 A 
HETATM   29  CAO MTK  5352      -1.100  41.349 226.799  1.00 20.00     0.025 A 
HETATM   30  CBE MTK  5352       0.261  40.994 227.014  1.00 20.00     0.036 A 
HETATM   31  CAU MTK  5352       0.581  39.764 227.647  1.00 20.00     0.054 A 
HETATM   32 CLAF MTK  5352       1.524  42.041 226.507  1.00 20.00    -0.084 Cl
HETATM   33  NBB MTK  5352      -0.161  37.696 228.673  1.00 20.00    -0.356 N 
ATOM     34  HBB MTK  5352       0.820  37.458 228.814  1.00  0.00     0.166 HD
ENDBRANCH  22  23
ENDBRANCH  19  21
ENDBRANCH   1  15
BRANCH   1  35
HETATM   35  SBC MTK  5352      -0.106  32.894 236.193  1.00 20.00    -0.159 SA
BRANCH  35  36
HETATM   36  CAZ MTK  5352       0.010  34.612 236.781  1.00 20.00     0.084 C 
BRANCH  36  37
HETATM   37  CBO MTK  5352      -1.148  35.518 236.381  1.00 20.00    -0.022 A 
HETATM   38  CAX MTK  5352      -2.230  34.756 235.589  1.00 20.00     0.011 A 
HETATM   39  CAY MTK  5352      -2.553  35.539 236.890  1.00 20.00     0.011 A 
BRANCH  37  40
HETATM   40  CBA MTK  5352      -0.642  36.808 235.729  1.00 20.00     0.123 C 
BRANCH  40  41
HETATM   41  CBD MTK  5352      -0.502  37.920 236.773  1.00 20.00     0.173 C 
HETATM   42  OAD MTK  5352      -1.375  38.793 236.864  1.00 20.00    -0.648 OA
HETATM   43  OAC MTK  5352       0.480  37.937 237.534  1.00 20.00    -0.648 OA
ENDBRANCH  40  41
ENDBRANCH  37  40
ENDBRANCH  36  37
ENDBRANCH  35  36
ENDBRANCH   1  35
TORSDOF 13
ENDMDL
MODEL 3
REMARK VINA RESULT:      -8.1      2.300      5.218
REMARK  13 active torsions:
REMARK  status: ('A' for Active; 'I' for Inactive)
REMARK    1  A    between atoms: CAH_13  and  CBG_12 
REMARK    2  A    between atoms: CAG_14  and  CBF_15 
REMARK    3  A    between atoms: CBI_20  and  CBM_21 
REMARK    4  A    between atoms: CAW_31  and  CBM_21 
REMARK    5  A    between atoms: CBM_21  and  SBC_22 
REMARK    6  A    between atoms: CAZ_23  and  SBC_22 
REMARK    7  A    between atoms: CAZ_23  and  CBO_24 
REMARK    8  A    between atoms: CBA_27  and  CBO_24 
REMARK    9  A    between atoms: CBA_27  and  CBD_28 
REMARK   10  A    between atoms: CAV_32  and  CAW_31 
REMARK   11  A    between atoms: CAV_32  and  CBH_33 
REMARK   12  A    between atoms: CBJ_38  and  CBN_39 
REMARK   13  A    between atoms: CBN_39  and  OAE_42 
ROOT
HETATM    1  CBM MTK  5352       1.222  32.800 233.462  1.00 20.00     0.080 C 
ENDROOT
BRANCH   1   2
HETATM    2  CAW MTK  5352       0.919  34.126 234.118  1.00 20.00     0.025 C 
BRANCH   2   3
HETATM    3  CAV MTK  5352       2.084  34.701 234.894  1.00 20.00     0.040 C 
BRANCH   3   4
HETATM    4  CBH MTK  5352       1.527  35.837 235.764  1.00 20.00    -0.049 A 
HETATM    5  CAM MTK  5352       0.202  36.203 235.412  1.00 20.00     0.007 A 
HETATM    6  CAI MTK  5352      -0.486  37.219 236.081  1.00 20.00     0.001 A 
HETATM    7  CAJ MTK  5352       0.143  37.908 237.135  1.00 20.00     0.001 A 
HETATM    8  CAP MTK  5352       1.463  37.571 237.517  1.00 20.00     0.011 A 
HETATM    9  CBJ MTK  5352       2.199  36.539 236.862  1.00 20.00    -0.019 A 
BRANCH   9  10
HETATM   10  CBN MTK  5352       3.688  36.257 237.393  1.00 20.00     0.078 C 
HETATM   11  CAA MTK  5352       4.223  37.331 238.362  1.00 20.00     0.051 C 
HETATM   12  CAB MTK  5352       3.740  34.889 238.076  1.00 20.00     0.051 C 
BRANCH  10  13
HETATM   13  OAE MTK  5352       4.606  36.229 236.292  1.00 20.00    -0.386 OA
ATOM     14  HAE MTK  5352       4.797  37.137 236.089  1.00  0.00     0.211 HD
ENDBRANCH  10  13
ENDBRANCH   9  10
ENDBRANCH   3   4
ENDBRANCH   2   3
ENDBRANCH   1   2
BRANCH   1  15
HETATM   15  CBI MTK  5352       0.741  32.889 232.020  1.00 20.00    -0.043 A 
HETATM   16  CAN MTK  5352       0.711  31.698 231.263  1.00 20.00     0.008 A 
HETATM   17  CAK MTK  5352       0.409  31.762 229.883  1.00 20.00     0.001 A 
HETATM   18  CAL MTK  5352       0.138  33.006 229.269  1.00 20.00     0.011 A 
HETATM   19  CBF MTK  5352       0.154  34.204 230.026  1.00 20.00    -0.036 A 
HETATM   20  CAT MTK  5352       0.453  34.142 231.409  1.00 20.00     0.019 A 
BRANCH  19  21
HETATM   21  CAG MTK  5352      -0.126  35.402 229.358  1.00 20.00     0.013 C 
HETATM   22  CAH MTK  5352      -1.352  36.083 229.405  1.00 20.00     0.030 C 
BRANCH  22  23
HETATM   23  CBG MTK  5352      -1.587  37.295 228.752  1.00 20.00     0.032 A 
HETATM   24  CAQ MTK  5352      -2.897  37.755 228.402  1.00 20.00     0.030 A 
HETATM   25  CAS MTK  5352      -3.030  39.003 227.731  1.00 20.00     0.016 A 
HETATM   26  CBK MTK  5352      -1.872  39.773 227.421  1.00 20.00    -0.009 A 
HETATM   27  CAR MTK  5352      -1.966  41.023 226.751  1.00 20.00     0.015 A 
HETATM   28  CBL MTK  5352      -0.581  39.261 227.802  1.00 20.00     0.044 A 
HETATM   29  CAO MTK  5352      -0.774  41.764 226.463  1.00 20.00     0.025 A 
HETATM   30  CBE MTK  5352       0.501  41.260 226.843  1.00 20.00     0.036 A 
HETATM   31  CAU MTK  5352       0.599  40.011 227.512  1.00 20.00     0.054 A 
HETATM   32 CLAF MTK  5352       1.928  42.148 226.492  1.00 20.00    -0.084 Cl
HETATM   33  NBB MTK  5352      -0.494  38.057 228.443  1.00 20.00    -0.356 N 
ATOM     34  HBB MTK  5352       0.429  37.711 228.703  1.00  0.00     0.166 HD
ENDBRANCH  22  23
ENDBRANCH  19  21
ENDBRANCH   1  15
BRANCH   1  35
HETATM   35  SBC MTK  5352       0.408  31.450 234.340  1.00 20.00    -0.159 SA
BRANCH  35  36
HETATM   36  CAZ MTK  5352       1.972  30.640 234.797  1.00 20.00     0.084 C 
BRANCH  36  37
HETATM   37  CBO MTK  5352       2.535  31.030 236.159  1.00 20.00    -0.022 A 
HETATM   38  CAX MTK  5352       1.493  31.767 237.024  1.00 20.00     0.011 A 
HETATM   39  CAY MTK  5352       2.212  30.479 237.510  1.00 20.00     0.011 A 
BRANCH  37  40
HETATM   40  CBA MTK  5352       3.888  31.732 236.017  1.00 20.00     0.123 C 
BRANCH  40  41
HETATM   41  CBD MTK  5352       5.022  30.818 236.493  1.00 20.00     0.173 C 
HETATM   42  OAD MTK  5352       5.287  29.786 235.863  1.00 20.00    -0.648 OA
HETATM   43  OAC MTK  5352       5.681  31.119 237.503  1.00 20.00    -0.648 OA
ENDBRANCH  40  41
ENDBRANCH  37  40
ENDBRANCH  36  37
ENDBRANCH  35  36
ENDBRANCH   1  35
TORSDOF 13
ENDMDL
MODEL 4
REMARK VINA RESULT:      -7.9      2.519      5.150
REMARK  13 active torsions:
REMARK  status: ('A' for Active; 'I' for Inactive)
REMARK    1  A    between atoms: CAH_13  and  CBG_12 
REMARK    2  A    between atoms: CAG_14  and  CBF_15 
REMARK    3  A    between atoms: CBI_20  and  CBM_21 
REMARK    4  A    between atoms: CAW_31  and  CBM_21 
REMARK    5  A    between atoms: CBM_21  and  SBC_22 
REMARK    6  A    between atoms: CAZ_23  and  SBC_22 
REMARK    7  A    between atoms: CAZ_23  and  CBO_24 
REMARK    8  A    between atoms: CBA_27  and  CBO_24 
REMARK    9  A    between atoms: CBA_27  and  CBD_28 
REMARK   10  A    between atoms: CAV_32  and  CAW_31 
REMARK   11  A    between atoms: CAV_32  and  CBH_33 
REMARK   12  A    between atoms: CBJ_38  and  CBN_39 
REMARK   13  A    between atoms: CBN_39  and  OAE_42 
ROOT
HETATM    1  CBM MTK  5352       1.308  32.718 233.531  1.00 20.00     0.080 C 
ENDROOT
BRANCH   1   2
HETATM    2  CAW MTK  5352       1.307  34.114 234.107  1.00 20.00     0.025 C 
BRANCH   2   3
HETATM    3  CAV MTK  5352       0.530  34.238 235.399  1.00 20.00     0.040 C 
BRANCH   3   4
HETATM    4  CBH MTK  5352       1.133  35.419 236.174  1.00 20.00    -0.049 A 
HETATM    5  CAM MTK  5352       2.487  35.206 236.538  1.00 20.00     0.007 A 
HETATM    6  CAI MTK  5352       3.219  36.160 237.251  1.00 20.00     0.001 A 
HETATM    7  CAJ MTK  5352       2.606  37.370 237.625  1.00 20.00     0.001 A 
HETATM    8  CAP MTK  5352       1.257  37.620 237.279  1.00 20.00     0.011 A 
HETATM    9  CBJ MTK  5352       0.476  36.675 236.550  1.00 20.00    -0.019 A 
BRANCH   9  10
HETATM   10  CBN MTK  5352      -1.042  37.083 236.221  1.00 20.00     0.078 C 
HETATM   11  CAA MTK  5352      -2.080  36.012 236.616  1.00 20.00     0.051 C 
HETATM   12  CAB MTK  5352      -1.384  38.400 236.919  1.00 20.00     0.051 C 
BRANCH  10  13
HETATM   13  OAE MTK  5352      -1.202  37.284 234.810  1.00 20.00    -0.386 OA
ATOM     14  HAE MTK  5352      -2.110  37.534 234.685  1.00  0.00     0.211 HD
ENDBRANCH  10  13
ENDBRANCH   9  10
ENDBRANCH   3   4
ENDBRANCH   2   3
ENDBRANCH   1   2
BRANCH   1  15
HETATM   15  CBI MTK  5352       0.806  32.821 232.096  1.00 20.00    -0.043 A 
HETATM   16  CAN MTK  5352       0.765  31.638 231.329  1.00 20.00     0.008 A 
HETATM   17  CAK MTK  5352       0.444  31.714 229.953  1.00 20.00     0.001 A 
HETATM   18  CAL MTK  5352       0.163  32.964 229.356  1.00 20.00     0.011 A 
HETATM   19  CBF MTK  5352       0.190  34.155 230.123  1.00 20.00    -0.036 A 
HETATM   20  CAT MTK  5352       0.509  34.080 231.502  1.00 20.00     0.019 A 
BRANCH  19  21
HETATM   21  CAG MTK  5352      -0.100  35.360 229.472  1.00 20.00     0.013 C 
HETATM   22  CAH MTK  5352      -1.360  35.976 229.443  1.00 20.00     0.030 C 
BRANCH  22  23
HETATM   23  CBG MTK  5352      -1.607  37.197 228.810  1.00 20.00     0.032 A 
HETATM   24  CAQ MTK  5352      -2.924  37.668 228.504  1.00 20.00     0.030 A 
HETATM   25  CAS MTK  5352      -3.070  38.923 227.850  1.00 20.00     0.016 A 
HETATM   26  CBK MTK  5352      -1.917  39.690 227.513  1.00 20.00    -0.009 A 
HETATM   27  CAR MTK  5352      -2.023  40.948 226.858  1.00 20.00     0.015 A 
HETATM   28  CBL MTK  5352      -0.618  39.166 227.850  1.00 20.00     0.044 A 
HETATM   29  CAO MTK  5352      -0.835  41.684 226.542  1.00 20.00     0.025 A 
HETATM   30  CBE MTK  5352       0.447  41.169 226.878  1.00 20.00     0.036 A 
HETATM   31  CAU MTK  5352       0.557  39.913 227.531  1.00 20.00     0.054 A 
HETATM   32 CLAF MTK  5352       1.869  42.051 226.493  1.00 20.00    -0.084 Cl
HETATM   33  NBB MTK  5352      -0.519  37.956 228.475  1.00 20.00    -0.356 N 
ATOM     34  HBB MTK  5352       0.409  37.601 228.704  1.00  0.00     0.166 HD
ENDBRANCH  22  23
ENDBRANCH  19  21
ENDBRANCH   1  15
BRANCH   1  35
HETATM   35  SBC MTK  5352       0.265  31.620 234.511  1.00 20.00    -0.159 SA
BRANCH  35  36
HETATM   36  CAZ MTK  5352       1.622  30.468 234.889  1.00 20.00     0.084 C 
BRANCH  36  37
HETATM   37  CBO MTK  5352       2.409  30.780 236.155  1.00 20.00    -0.022 A 
HETATM   38  CAX MTK  5352       1.512  31.375 237.260  1.00 20.00     0.011 A 
HETATM   39  CAY MTK  5352       2.371  30.101 237.486  1.00 20.00     0.011 A 
BRANCH  37  40
HETATM   40  CBA MTK  5352       3.676  31.580 235.836  1.00 20.00     0.123 C 
BRANCH  40  41
HETATM   41  CBD MTK  5352       4.918  30.850 236.358  1.00 20.00     0.173 C 
HETATM   42  OAD MTK  5352       5.297  29.808 235.808  1.00 20.00    -0.648 OA
HETATM   43  OAC MTK  5352       5.550  31.312 237.324  1.00 20.00    -0.648 OA
ENDBRANCH  40  41
ENDBRANCH  37  40
ENDBRANCH  36  37
ENDBRANCH  35  36
ENDBRANCH   1  35
TORSDOF 13
ENDMDL
MODEL 5
REMARK VINA RESULT:      -7.7      2.043      5.758
REMARK  13 active torsions:
REMARK  status: ('A' for Active; 'I' for Inactive)
REMARK    1  A    between atoms: CAH_13  and  CBG_12 
REMARK    2  A    between atoms: CAG_14  and  CBF_15 
REMARK    3  A    between atoms: CBI_20  and  CBM_21 
REMARK    4  A    between atoms: CAW_31  and  CBM_21 
REMARK    5  A    between atoms: CBM_21  and  SBC_22 
REMARK    6  A    between atoms: CAZ_23  and  SBC_22 
REMARK    7  A    between atoms: CAZ_23  and  CBO_24 
REMARK    8  A    between atoms: CBA_27  and  CBO_24 
REMARK    9  A    between atoms: CBA_27  and  CBD_28 
REMARK   10  A    between atoms: CAV_32  and  CAW_31 
REMARK   11  A    between atoms: CAV_32  and  CBH_33 
REMARK   12  A    between atoms: CBJ_38  and  CBN_39 
REMARK   13  A    between atoms: CBN_39  and  OAE_42 
ROOT
HETATM    1  CBM MTK  5352       1.220  32.814 233.527  1.00 20.00     0.080 C 
ENDROOT
BRANCH   1   2
HETATM    2  CAW MTK  5352       1.211  34.218 234.082  1.00 20.00     0.025 C 
BRANCH   2   3
HETATM    3  CAV MTK  5352       1.991  34.368 235.370  1.00 20.00     0.040 C 
BRANCH   3   4
HETATM    4  CBH MTK  5352       1.482  35.644 236.057  1.00 20.00    -0.049 A 
HETATM    5  CAM MTK  5352       0.148  35.968 235.700  1.00 20.00     0.007 A 
HETATM    6  CAI MTK  5352      -0.501  37.094 236.216  1.00 20.00     0.001 A 
HETATM    7  CAJ MTK  5352       0.178  37.939 237.113  1.00 20.00     0.001 A 
HETATM    8  CAP MTK  5352       1.510  37.647 237.494  1.00 20.00     0.011 A 
HETATM    9  CBJ MTK  5352       2.207  36.508 236.994  1.00 20.00    -0.019 A 
BRANCH   9  10
HETATM   10  CBN MTK  5352       3.713  36.293 237.506  1.00 20.00     0.078 C 
HETATM   11  CAA MTK  5352       4.247  37.441 238.386  1.00 20.00     0.051 C 
HETATM   12  CAB MTK  5352       3.812  34.976 238.279  1.00 20.00     0.051 C 
BRANCH  10  13
HETATM   13  OAE MTK  5352       4.607  36.208 236.387  1.00 20.00    -0.386 OA
ATOM     14  HAE MTK  5352       4.582  35.302 236.103  1.00  0.00     0.211 HD
ENDBRANCH  10  13
ENDBRANCH   9  10
ENDBRANCH   3   4
ENDBRANCH   2   3
ENDBRANCH   1   2
BRANCH   1  15
HETATM   15  CBI MTK  5352       0.756  32.897 232.079  1.00 20.00    -0.043 A 
HETATM   16  CAN MTK  5352       0.742  31.705 231.324  1.00 20.00     0.008 A 
HETATM   17  CAK MTK  5352       0.457  31.764 229.940  1.00 20.00     0.001 A 
HETATM   18  CAL MTK  5352       0.184  33.006 229.321  1.00 20.00     0.011 A 
HETATM   19  CBF MTK  5352       0.182  34.205 230.076  1.00 20.00    -0.036 A 
HETATM   20  CAT MTK  5352       0.465  34.147 231.463  1.00 20.00     0.019 A 
BRANCH  19  21
HETATM   21  CAG MTK  5352      -0.098  35.401 229.404  1.00 20.00     0.013 C 
HETATM   22  CAH MTK  5352      -1.327  36.077 229.442  1.00 20.00     0.030 C 
BRANCH  22  23
HETATM   23  CBG MTK  5352      -1.563  37.287 228.784  1.00 20.00     0.032 A 
HETATM   24  CAQ MTK  5352      -2.873  37.744 228.431  1.00 20.00     0.030 A 
HETATM   25  CAS MTK  5352      -3.007  38.989 227.756  1.00 20.00     0.016 A 
HETATM   26  CBK MTK  5352      -1.849  39.759 227.443  1.00 20.00    -0.009 A 
HETATM   27  CAR MTK  5352      -1.944  41.007 226.769  1.00 20.00     0.015 A 
HETATM   28  CBL MTK  5352      -0.558  39.250 227.828  1.00 20.00     0.044 A 
HETATM   29  CAO MTK  5352      -0.752  41.747 226.479  1.00 20.00     0.025 A 
HETATM   30  CBE MTK  5352       0.523  41.246 226.862  1.00 20.00     0.036 A 
HETATM   31  CAU MTK  5352       0.621  40.000 227.536  1.00 20.00     0.054 A 
HETATM   32 CLAF MTK  5352       1.950  42.134 226.509  1.00 20.00    -0.084 Cl
HETATM   33  NBB MTK  5352      -0.470  38.049 228.473  1.00 20.00    -0.356 N 
ATOM     34  HBB MTK  5352       0.453  37.705 228.735  1.00  0.00     0.166 HD
ENDBRANCH  22  23
ENDBRANCH  19  21
ENDBRANCH   1  15
BRANCH   1  35
HETATM   35  SBC MTK  5352       0.147  31.734 234.496  1.00 20.00    -0.159 SA
BRANCH  35  36
HETATM   36  CAZ MTK  5352      -1.243  32.908 234.492  1.00 20.00     0.084 C 
BRANCH  36  37
HETATM   37  CBO MTK  5352      -2.463  32.471 233.690  1.00 20.00    -0.022 A 
HETATM   38  CAX MTK  5352      -2.361  31.000 233.239  1.00 20.00     0.011 A 
HETATM   39  CAY MTK  5352      -3.559  31.530 234.072  1.00 20.00     0.011 A 
BRANCH  37  40
HETATM   40  CBA MTK  5352      -2.786  33.477 232.582  1.00 20.00     0.123 C 
BRANCH  40  41
HETATM   41  CBD MTK  5352      -3.578  34.662 233.145  1.00 20.00     0.173 C 
HETATM   42  OAD MTK  5352      -4.813  34.673 233.062  1.00 20.00    -0.648 OA
HETATM   43  OAC MTK  5352      -2.981  35.603 233.695  1.00 20.00    -0.648 OA
ENDBRANCH  40  41
ENDBRANCH  37  40
ENDBRANCH  36  37
ENDBRANCH  35  36
ENDBRANCH   1  35
TORSDOF 13
ENDMDL
MODEL 6
REMARK VINA RESULT:      -7.6      2.450      5.106
REMARK  13 active torsions:
REMARK  status: ('A' for Active; 'I' for Inactive)
REMARK    1  A    between atoms: CAH_13  and  CBG_12 
REMARK    2  A    between atoms: CAG_14  and  CBF_15 
REMARK    3  A    between atoms: CBI_20  and  CBM_21 
REMARK    4  A    between atoms: CAW_31  and  CBM_21 
REMARK    5  A    between atoms: CBM_21  and  SBC_22 
REMARK    6  A    between atoms: CAZ_23  and  SBC_22 
REMARK    7  A    between atoms: CAZ_23  and  CBO_24 
REMARK    8  A    between atoms: CBA_27  and  CBO_24 
REMARK    9  A    between atoms: CBA_27  and  CBD_28 
REMARK   10  A    between atoms: CAV_32  and  CAW_31 
REMARK   11  A    between atoms: CAV_32  and  CBH_33 
REMARK   12  A    between atoms: CBJ_38  and  CBN_39 
REMARK   13  A    between atoms: CBN_39  and  OAE_42 
ROOT
HETATM    1  CBM MTK  5352       1.124  33.046 233.755  1.00 20.00     0.080 C 
ENDROOT
BRANCH   1   2
HETATM    2  CAW MTK  5352       1.827  34.023 234.666  1.00 20.00     0.025 C 
BRANCH   2   3
HETATM    3  CAV MTK  5352       1.328  33.990 236.094  1.00 20.00     0.040 C 
BRANCH   3   4
HETATM    4  CBH MTK  5352       0.959  35.432 236.474  1.00 20.00    -0.049 A 
HETATM    5  CAM MTK  5352      -0.399  35.743 236.203  1.00 20.00     0.007 A 
HETATM    6  CAI MTK  5352      -0.935  37.005 236.475  1.00 20.00     0.001 A 
HETATM    7  CAJ MTK  5352      -0.116  38.004 237.032  1.00 20.00     0.001 A 
HETATM    8  CAP MTK  5352       1.243  37.731 237.318  1.00 20.00     0.011 A 
HETATM    9  CBJ MTK  5352       1.829  36.457 237.058  1.00 20.00    -0.019 A 
BRANCH   9  10
HETATM   10  CBN MTK  5352       3.381  36.279 237.430  1.00 20.00     0.078 C 
HETATM   11  CAA MTK  5352       4.039  37.551 238.002  1.00 20.00     0.051 C 
HETATM   12  CAB MTK  5352       3.543  35.133 238.431  1.00 20.00     0.051 C 
BRANCH  10  13
HETATM   13  OAE MTK  5352       4.133  35.941 236.257  1.00 20.00    -0.386 OA
ATOM     14  HAE MTK  5352       4.634  35.167 236.483  1.00  0.00     0.211 HD
ENDBRANCH  10  13
ENDBRANCH   9  10
ENDBRANCH   3   4
ENDBRANCH   2   3
ENDBRANCH   1   2
BRANCH   1  15
HETATM   15  CBI MTK  5352      -0.159  33.714 233.279  1.00 20.00    -0.043 A 
HETATM   16  CAN MTK  5352      -1.385  33.174 233.723  1.00 20.00     0.008 A 
HETATM   17  CAK MTK  5352      -2.596  33.674 233.191  1.00 20.00     0.001 A 
HETATM   18  CAL MTK  5352      -2.578  34.707 232.226  1.00 20.00     0.011 A 
HETATM   19  CBF MTK  5352      -1.351  35.263 231.786  1.00 20.00    -0.036 A 
HETATM   20  CAT MTK  5352      -0.137  34.766 232.320  1.00 20.00     0.019 A 
BRANCH  19  21
HETATM   21  CAG MTK  5352      -1.403  36.286 230.831  1.00 20.00     0.013 C 
HETATM   22  CAH MTK  5352      -2.491  36.542 229.984  1.00 20.00     0.030 C 
BRANCH  22  23
HETATM   23  CBG MTK  5352      -2.522  37.593 229.063  1.00 20.00     0.032 A 
HETATM   24  CAQ MTK  5352      -3.610  37.811 228.159  1.00 20.00     0.030 A 
HETATM   25  CAS MTK  5352      -3.543  38.906 227.254  1.00 20.00     0.016 A 
HETATM   26  CBK MTK  5352      -2.407  39.767 227.259  1.00 20.00    -0.009 A 
HETATM   27  CAR MTK  5352      -2.303  40.871 226.370  1.00 20.00     0.015 A 
HETATM   28  CBL MTK  5352      -1.345  39.501 228.196  1.00 20.00     0.044 A 
HETATM   29  CAO MTK  5352      -1.143  41.711 226.415  1.00 20.00     0.025 A 
HETATM   30  CBE MTK  5352      -0.097  41.451 227.342  1.00 20.00     0.036 A 
HETATM   31  CAU MTK  5352      -0.196  40.348 228.231  1.00 20.00     0.054 A 
HETATM   32 CLAF MTK  5352       1.295  42.456 227.389  1.00 20.00    -0.084 Cl
HETATM   33  NBB MTK  5352      -1.446  38.437 229.047  1.00 20.00    -0.356 N 
ATOM     34  HBB MTK  5352      -0.683  38.265 229.701  1.00  0.00     0.166 HD
ENDBRANCH  22  23
ENDBRANCH  19  21
ENDBRANCH   1  15
BRANCH   1  35
HETATM   35  SBC MTK  5352       0.774  31.501 234.620  1.00 20.00    -0.159 SA
BRANCH  35  36
HETATM   36  CAZ MTK  5352       2.494  30.916 234.526  1.00 20.00     0.084 C 
BRANCH  36  37
HETATM   37  CBO MTK  5352       3.199  30.746 235.867  1.00 20.00    -0.022 A 
HETATM   38  CAX MTK  5352       4.722  30.571 235.699  1.00 20.00     0.011 A 
HETATM   39  CAY MTK  5352       4.108  31.689 236.585  1.00 20.00     0.011 A 
BRANCH  37  40
HETATM   40  CBA MTK  5352       2.506  29.683 236.725  1.00 20.00     0.123 C 
BRANCH  40  41
HETATM   41  CBD MTK  5352       2.113  30.265 238.087  1.00 20.00     0.173 C 
HETATM   42  OAD MTK  5352       2.738  29.933 239.103  1.00 20.00    -0.648 OA
HETATM   43  OAC MTK  5352       1.176  31.077 238.168  1.00 20.00    -0.648 OA
ENDBRANCH  40  41
ENDBRANCH  37  40
ENDBRANCH  36  37
ENDBRANCH  35  36
ENDBRANCH   1  35
TORSDOF 13
ENDMDL
MODEL 7
REMARK VINA RESULT:      -7.6      2.361      5.339
REMARK  13 active torsions:
REMARK  status: ('A' for Active; 'I' for Inactive)
REMARK    1  A    between atoms: CAH_13  and  CBG_12 
REMARK    2  A    between atoms: CAG_14  and  CBF_15 
REMARK    3  A    between atoms: CBI_20  and  CBM_21 
REMARK    4  A    between atoms: CAW_31  and  CBM_21 
REMARK    5  A    between atoms: CBM_21  and  SBC_22 
REMARK    6  A    between atoms: CAZ_23  and  SBC_22 
REMARK    7  A    between atoms: CAZ_23  and  CBO_24 
REMARK    8  A    between atoms: CBA_27  and  CBO_24 
REMARK    9  A    between atoms: CBA_27  and  CBD_28 
REMARK   10  A    between atoms: CAV_32  and  CAW_31 
REMARK   11  A    between atoms: CAV_32  and  CBH_33 
REMARK   12  A    between atoms: CBJ_38  and  CBN_39 
REMARK   13  A    between atoms: CBN_39  and  OAE_42 
ROOT
HETATM    1  CBM MTK  5352       1.338  32.684 233.575  1.00 20.00     0.080 C 
ENDROOT
BRANCH   1   2
HETATM    2  CAW MTK  5352       0.972  33.956 234.300  1.00 20.00     0.025 C 
BRANCH   2   3
HETATM    3  CAV MTK  5352       2.119  34.565 235.076  1.00 20.00     0.040 C 
BRANCH   3   4
HETATM    4  CBH MTK  5352       1.545  35.748 235.871  1.00 20.00    -0.049 A 
HETATM    5  CAM MTK  5352       0.218  36.075 235.493  1.00 20.00     0.007 A 
HETATM    6  CAI MTK  5352      -0.485  37.123 236.095  1.00 20.00     0.001 A 
HETATM    7  CAJ MTK  5352       0.133  37.885 237.104  1.00 20.00     0.001 A 
HETATM    8  CAP MTK  5352       1.457  37.589 237.509  1.00 20.00     0.011 A 
HETATM    9  CBJ MTK  5352       2.207  36.527 236.923  1.00 20.00    -0.019 A 
BRANCH   9  10
HETATM   10  CBN MTK  5352       3.697  36.297 237.474  1.00 20.00     0.078 C 
HETATM   11  CAA MTK  5352       4.196  37.410 238.418  1.00 20.00     0.051 C 
HETATM   12  CAB MTK  5352       3.777  34.949 238.195  1.00 20.00     0.051 C 
BRANCH  10  13
HETATM   13  OAE MTK  5352       4.626  36.262 236.382  1.00 20.00    -0.386 OA
ATOM     14  HAE MTK  5352       4.289  35.613 235.775  1.00  0.00     0.211 HD
ENDBRANCH  10  13
ENDBRANCH   9  10
ENDBRANCH   3   4
ENDBRANCH   2   3
ENDBRANCH   1   2
BRANCH   1  15
HETATM   15  CBI MTK  5352       0.824  32.815 232.147  1.00 20.00    -0.043 A 
HETATM   16  CAN MTK  5352       0.749  31.641 231.366  1.00 20.00     0.008 A 
HETATM   17  CAK MTK  5352       0.417  31.741 229.995  1.00 20.00     0.001 A 
HETATM   18  CAL MTK  5352       0.158  33.004 229.414  1.00 20.00     0.011 A 
HETATM   19  CBF MTK  5352       0.219  34.184 230.196  1.00 20.00    -0.036 A 
HETATM   20  CAT MTK  5352       0.549  34.086 231.570  1.00 20.00     0.019 A 
BRANCH  19  21
HETATM   21  CAG MTK  5352      -0.051  35.403 229.561  1.00 20.00     0.013 C 
HETATM   22  CAH MTK  5352      -1.328  35.957 229.391  1.00 20.00     0.030 C 
BRANCH  22  23
HETATM   23  CBG MTK  5352      -1.558  37.192 228.780  1.00 20.00     0.032 A 
HETATM   24  CAQ MTK  5352      -2.869  37.697 228.504  1.00 20.00     0.030 A 
HETATM   25  CAS MTK  5352      -2.998  38.965 227.872  1.00 20.00     0.016 A 
HETATM   26  CBK MTK  5352      -1.834  39.712 227.527  1.00 20.00    -0.009 A 
HETATM   27  CAR MTK  5352      -1.922  40.981 226.893  1.00 20.00     0.015 A 
HETATM   28  CBL MTK  5352      -0.541  39.154 227.834  1.00 20.00     0.044 A 
HETATM   29  CAO MTK  5352      -0.724  41.696 226.569  1.00 20.00     0.025 A 
HETATM   30  CBE MTK  5352       0.552  41.147 226.876  1.00 20.00     0.036 A 
HETATM   31  CAU MTK  5352       0.645  39.879 227.507  1.00 20.00     0.054 A 
HETATM   32 CLAF MTK  5352       1.987  42.005 226.480  1.00 20.00    -0.084 Cl
HETATM   33  NBB MTK  5352      -0.460  37.932 228.439  1.00 20.00    -0.356 N 
ATOM     34  HBB MTK  5352       0.464  37.554 228.647  1.00  0.00     0.166 HD
ENDBRANCH  22  23
ENDBRANCH  19  21
ENDBRANCH   1  15
BRANCH   1  35
HETATM   35  SBC MTK  5352       0.620  31.248 234.398  1.00 20.00    -0.159 SA
BRANCH  35  36
HETATM   36  CAZ MTK  5352      -0.713  32.208 235.180  1.00 20.00     0.084 C 
BRANCH  36  37
HETATM   37  CBO MTK  5352      -0.751  32.153 236.702  1.00 20.00    -0.022 A 
HETATM   38  CAX MTK  5352       0.152  31.035 237.262  1.00 20.00     0.011 A 
HETATM   39  CAY MTK  5352       0.309  32.519 237.689  1.00 20.00     0.011 A 
BRANCH  37  40
HETATM   40  CBA MTK  5352      -2.192  32.155 237.220  1.00 20.00     0.123 C 
BRANCH  40  41
HETATM   41  CBD MTK  5352      -2.443  33.380 238.107  1.00 20.00     0.173 C 
HETATM   42  OAD MTK  5352      -2.509  34.506 237.597  1.00 20.00    -0.648 OA
HETATM   43  OAC MTK  5352      -2.592  33.239 239.333  1.00 20.00    -0.648 OA
ENDBRANCH  40  41
ENDBRANCH  37  40
ENDBRANCH  36  37
ENDBRANCH  35  36
ENDBRANCH   1  35
TORSDOF 13
ENDMDL
MODEL 8
REMARK VINA RESULT:      -7.6      4.537      9.593
REMARK  13 active torsions:
REMARK  status: ('A' for Active; 'I' for Inactive)
REMARK    1  A    between atoms: CAH_13  and  CBG_12 
REMARK    2  A    between atoms: CAG_14  and  CBF_15 
REMARK    3  A    between atoms: CBI_20  and  CBM_21 
REMARK    4  A    between atoms: CAW_31  and  CBM_21 
REMARK    5  A    between atoms: CBM_21  and  SBC_22 
REMARK    6  A    between atoms: CAZ_23  and  SBC_22 
REMARK    7  A    between atoms: CAZ_23  and  CBO_24 
REMARK    8  A    between atoms: CBA_27  and  CBO_24 
REMARK    9  A    between atoms: CBA_27  and  CBD_28 
REMARK   10  A    between atoms: CAV_32  and  CAW_31 
REMARK   11  A    between atoms: CAV_32  and  CBH_33 
REMARK   12  A    between atoms: CBJ_38  and  CBN_39 
REMARK   13  A    between atoms: CBN_39  and  OAE_42 
ROOT
HETATM    1  CBM MTK  5352      -2.004  36.544 228.913  1.00 20.00     0.080 C 
ENDROOT
BRANCH   1   2
HETATM    2  CAW MTK  5352      -0.948  37.616 228.786  1.00 20.00     0.025 C 
BRANCH   2   3
HETATM    3  CAV MTK  5352      -1.475  39.018 229.002  1.00 20.00     0.040 C 
BRANCH   3   4
HETATM    4  CBH MTK  5352      -1.751  39.613 227.613  1.00 20.00    -0.049 A 
HETATM    5  CAM MTK  5352      -3.034  39.275 227.113  1.00 20.00     0.007 A 
HETATM    6  CAI MTK  5352      -3.479  39.716 225.863  1.00 20.00     0.001 A 
HETATM    7  CAJ MTK  5352      -2.639  40.517 225.068  1.00 20.00     0.001 A 
HETATM    8  CAP MTK  5352      -1.351  40.877 225.534  1.00 20.00     0.011 A 
HETATM    9  CBJ MTK  5352      -0.860  40.450 226.803  1.00 20.00    -0.019 A 
BRANCH   9  10
HETATM   10  CBN MTK  5352       0.617  40.928 227.211  1.00 20.00     0.078 C 
HETATM   11  CAA MTK  5352       0.689  41.657 228.569  1.00 20.00     0.051 C 
HETATM   12  CAB MTK  5352       1.561  39.724 227.234  1.00 20.00     0.051 C 
BRANCH  10  13
HETATM   13  OAE MTK  5352       1.120  41.857 226.240  1.00 20.00    -0.386 OA
ATOM     14  HAE MTK  5352       0.978  41.449 225.394  1.00  0.00     0.211 HD
ENDBRANCH  10  13
ENDBRANCH   9  10
ENDBRANCH   3   4
ENDBRANCH   2   3
ENDBRANCH   1   2
BRANCH   1  15
HETATM   15  CBI MTK  5352      -2.125  36.201 230.392  1.00 20.00    -0.043 A 
HETATM   16  CAN MTK  5352      -3.390  35.800 230.872  1.00 20.00     0.008 A 
HETATM   17  CAK MTK  5352      -3.577  35.613 232.262  1.00 20.00     0.001 A 
HETATM   18  CAL MTK  5352      -2.505  35.823 233.159  1.00 20.00     0.011 A 
HETATM   19  CBF MTK  5352      -1.229  36.213 232.683  1.00 20.00    -0.036 A 
HETATM   20  CAT MTK  5352      -1.039  36.397 231.291  1.00 20.00     0.019 A 
BRANCH  19  21
HETATM   21  CAG MTK  5352      -0.209  36.401 233.624  1.00 20.00     0.013 C 
HETATM   22  CAH MTK  5352      -0.340  36.192 235.005  1.00 20.00     0.030 C 
BRANCH  22  23
HETATM   23  CBG MTK  5352       0.709  36.359 235.913  1.00 20.00     0.032 A 
HETATM   24  CAQ MTK  5352       1.396  37.601 236.097  1.00 20.00     0.030 A 
HETATM   25  CAS MTK  5352       2.457  37.667 237.042  1.00 20.00     0.016 A 
HETATM   26  CBK MTK  5352       2.819  36.508 237.790  1.00 20.00    -0.009 A 
HETATM   27  CAR MTK  5352       3.873  36.534 238.742  1.00 20.00     0.015 A 
HETATM   28  CBL MTK  5352       2.088  35.287 237.564  1.00 20.00     0.044 A 
HETATM   29  CAO MTK  5352       4.198  35.345 239.472  1.00 20.00     0.025 A 
HETATM   30  CBE MTK  5352       3.474  34.140 239.253  1.00 20.00     0.036 A 
HETATM   31  CAU MTK  5352       2.421  34.110 238.301  1.00 20.00     0.054 A 
HETATM   32 CLAF MTK  5352       3.871  32.715 240.125  1.00 20.00    -0.084 Cl
HETATM   33  NBB MTK  5352       1.077  35.264 236.646  1.00 20.00    -0.356 N 
ATOM     34  HBB MTK  5352       0.574  34.390 236.499  1.00  0.00     0.166 HD
ENDBRANCH  22  23
ENDBRANCH  19  21
ENDBRANCH   1  15
BRANCH   1  35
HETATM   35  SBC MTK  5352      -1.562  35.091 227.939  1.00 20.00    -0.159 SA
BRANCH  35  36
HETATM   36  CAZ MTK  5352       0.199  35.537 227.846  1.00 20.00     0.084 C 
BRANCH  36  37
HETATM   37  CBO MTK  5352       1.159  34.544 228.490  1.00 20.00    -0.022 A 
HETATM   38  CAX MTK  5352       1.620  35.010 229.886  1.00 20.00     0.011 A 
HETATM   39  CAY MTK  5352       0.939  33.634 229.654  1.00 20.00     0.011 A 
BRANCH  37  40
HETATM   40  CBA MTK  5352       2.281  34.153 227.524  1.00 20.00     0.123 C 
BRANCH  40  41
HETATM   41  CBD MTK  5352       1.727  33.311 226.369  1.00 20.00     0.173 C 
HETATM   42  OAD MTK  5352       2.099  33.535 225.210  1.00 20.00    -0.648 OA
HETATM   43  OAC MTK  5352       0.915  32.398 226.599  1.00 20.00    -0.648 OA
ENDBRANCH  40  41
ENDBRANCH  37  40
ENDBRANCH  36  37
ENDBRANCH  35  36
ENDBRANCH   1  35
TORSDOF 13
ENDMDL
MODEL 9
REMARK VINA RESULT:      -7.4      4.320      9.243
REMARK  13 active torsions:
REMARK  status: ('A' for Active; 'I' for Inactive)
REMARK    1  A    between atoms: CAH_13  and  CBG_12 
REMARK    2  A    between atoms: CAG_14  and  CBF_15 
REMARK    3  A    between atoms: CBI_20  and  CBM_21 
REMARK    4  A    between atoms: CAW_31  and  CBM_21 
REMARK    5  A    between atoms: CBM_21  and  SBC_22 
REMARK    6  A    between atoms: CAZ_23  and  SBC_22 
REMARK    7  A    between atoms: CAZ_23  and  CBO_24 
REMARK    8  A    between atoms: CBA_27  and  CBO_24 
REMARK    9  A    between atoms: CBA_27  and  CBD_28 
REMARK   10  A    between atoms: CAV_32  and  CAW_31 
REMARK   11  A    between atoms: CAV_32  and  CBH_33 
REMARK   12  A    between atoms: CBJ_38  and  CBN_39 
REMARK   13  A    between atoms: CBN_39  and  OAE_42 
ROOT
HETATM    1  CBM MTK  5352      -2.833  35.171 229.251  1.00 20.00     0.080 C 
ENDROOT
BRANCH   1   2
HETATM    2  CAW MTK  5352      -2.305  36.536 228.879  1.00 20.00     0.025 C 
BRANCH   2   3
HETATM    3  CAV MTK  5352      -3.299  37.654 229.105  1.00 20.00     0.040 C 
BRANCH   3   4
HETATM    4  CBH MTK  5352      -3.570  38.297 227.737  1.00 20.00    -0.049 A 
HETATM    5  CAM MTK  5352      -4.646  37.686 227.044  1.00 20.00     0.007 A 
HETATM    6  CAI MTK  5352      -5.052  38.122 225.779  1.00 20.00     0.001 A 
HETATM    7  CAJ MTK  5352      -4.382  39.196 225.165  1.00 20.00     0.001 A 
HETATM    8  CAP MTK  5352      -3.304  39.833 225.826  1.00 20.00     0.011 A 
HETATM    9  CBJ MTK  5352      -2.860  39.420 227.117  1.00 20.00    -0.019 A 
BRANCH   9  10
HETATM   10  CBN MTK  5352      -1.627  40.227 227.755  1.00 20.00     0.078 C 
HETATM   11  CAA MTK  5352      -0.381  39.359 228.027  1.00 20.00     0.051 C 
HETATM   12  CAB MTK  5352      -1.242  41.390 226.838  1.00 20.00     0.051 C 
BRANCH  10  13
HETATM   13  OAE MTK  5352      -2.004  40.780 229.024  1.00 20.00    -0.386 OA
ATOM     14  HAE MTK  5352      -2.559  40.128 229.437  1.00  0.00     0.211 HD
ENDBRANCH  10  13
ENDBRANCH   9  10
ENDBRANCH   3   4
ENDBRANCH   2   3
ENDBRANCH   1   2
BRANCH   1  15
HETATM   15  CBI MTK  5352      -2.837  35.087 230.771  1.00 20.00    -0.043 A 
HETATM   16  CAN MTK  5352      -4.035  34.688 231.403  1.00 20.00     0.008 A 
HETATM   17  CAK MTK  5352      -4.124  34.737 232.814  1.00 20.00     0.001 A 
HETATM   18  CAL MTK  5352      -3.023  35.178 233.583  1.00 20.00     0.011 A 
HETATM   19  CBF MTK  5352      -1.813  35.568 232.956  1.00 20.00    -0.036 A 
HETATM   20  CAT MTK  5352      -1.721  35.517 231.543  1.00 20.00     0.019 A 
BRANCH  19  21
HETATM   21  CAG MTK  5352      -0.760  35.992 233.774  1.00 20.00     0.013 C 
HETATM   22  CAH MTK  5352      -0.652  35.730 235.148  1.00 20.00     0.030 C 
BRANCH  22  23
HETATM   23  CBG MTK  5352       0.431  36.141 235.929  1.00 20.00     0.032 A 
HETATM   24  CAQ MTK  5352       0.939  37.480 235.922  1.00 20.00     0.030 A 
HETATM   25  CAS MTK  5352       2.051  37.798 236.750  1.00 20.00     0.016 A 
HETATM   26  CBK MTK  5352       2.640  36.792 237.570  1.00 20.00    -0.009 A 
HETATM   27  CAR MTK  5352       3.753  37.071 238.409  1.00 20.00     0.015 A 
HETATM   28  CBL MTK  5352       2.083  35.463 237.538  1.00 20.00     0.044 A 
HETATM   29  CAO MTK  5352       4.310  36.028 239.218  1.00 20.00     0.025 A 
HETATM   30  CBE MTK  5352       3.757  34.717 239.190  1.00 20.00     0.036 A 
HETATM   31  CAU MTK  5352       2.646  34.434 238.353  1.00 20.00     0.054 A 
HETATM   32 CLAF MTK  5352       4.430  33.468 240.158  1.00 20.00    -0.084 Cl
HETATM   33  NBB MTK  5352       1.016  35.197 236.729  1.00 20.00    -0.356 N 
ATOM     34  HBB MTK  5352       0.637  34.251 236.719  1.00  0.00     0.166 HD
ENDBRANCH  22  23
ENDBRANCH  19  21
ENDBRANCH   1  15
BRANCH   1  35
HETATM   35  SBC MTK  5352      -1.811  33.871 228.528  1.00 20.00    -0.159 SA
BRANCH  35  36
HETATM   36  CAZ MTK  5352      -0.592  35.037 227.847  1.00 20.00     0.084 C 
BRANCH  36  37
HETATM   37  CBO MTK  5352       0.865  34.707 228.146  1.00 20.00    -0.022 A 
HETATM   38  CAX MTK  5352       1.321  35.284 229.502  1.00 20.00     0.011 A 
HETATM   39  CAY MTK  5352       1.434  33.773 229.164  1.00 20.00     0.011 A 
BRANCH  37  40
HETATM   40  CBA MTK  5352       1.765  35.042 226.953  1.00 20.00     0.123 C 
BRANCH  40  41
HETATM   41  CBD MTK  5352       2.508  36.361 227.193  1.00 20.00     0.173 C 
HETATM   42  OAD MTK  5352       3.653  36.346 227.662  1.00 20.00    -0.648 OA
HETATM   43  OAC MTK  5352       1.964  37.441 226.906  1.00 20.00    -0.648 OA
ENDBRANCH  40  41
ENDBRANCH  37  40
ENDBRANCH  36  37
ENDBRANCH  35  36
ENDBRANCH   1  35
TORSDOF 13
ENDMDL
