MODEL 1
REMARK VINA RESULT:      -5.8      0.000      0.000
REMARK  0 active torsions:
REMARK  status: ('A' for Active; 'I' for Inactive)
ROOT
HETATM    1  C9  7HP  1141       3.969  41.845 229.106  1.00 20.00     0.139 A 
HETATM    2  C4  7HP  1141       2.872  41.522 228.312  1.00 20.00     0.084 A 
HETATM    3  N3  7HP  1141       2.904  41.001 227.065  1.00 20.00    -0.349 N 
ATOM      4  H3  7HP  1141       3.754  40.745 226.563  1.00  0.00     0.166 HD
HETATM    5  C2  7HP  1141       1.637  40.866 226.571  1.00 20.00     0.184 A 
HETATM    6  N1  7HP  1141       0.499  41.202 227.276  1.00 20.00    -0.318 N 
ATOM      7  H1  7HP  1141      -0.399  41.067 226.811  1.00  0.00     0.169 HD
HETATM    8  C6  7HP  1141       0.480  41.704 228.552  1.00 20.00     0.276 A 
HETATM    9  O6  7HP  1141      -0.570  41.893 229.127  1.00 20.00    -0.266 OA
HETATM   10  C5  7HP  1141       1.754  41.860 229.048  1.00 20.00     0.144 A 
HETATM   11  N7  7HP  1141       2.183  42.357 230.255  1.00 20.00    -0.294 N 
ATOM     12  H7  7HP  1141       1.599  42.688 231.024  1.00  0.00     0.187 HD
HETATM   13  N8  7HP  1141       3.473  42.320 230.222  1.00 20.00    -0.309 N 
ATOM     14  H8  7HP  1141       4.056  42.634 230.997  1.00  0.00     0.186 HD
ENDROOT
TORSDOF 0
ENDMDL
MODEL 2
REMARK VINA RESULT:      -5.6      1.039      2.870
REMARK  0 active torsions:
REMARK  status: ('A' for Active; 'I' for Inactive)
ROOT
HETATM    1  C9  7HP  1141       2.667  40.714 226.472  1.00 20.00     0.139 A 
HETATM    2  C4  7HP  1141       2.829  41.264 227.742  1.00 20.00     0.084 A 
HETATM    3  N3  7HP  1141       3.978  41.331 228.452  1.00 20.00    -0.349 N 
ATOM      4  H3  7HP  1141       4.887  41.009 228.119  1.00  0.00     0.166 HD
HETATM    5  C2  7HP  1141       3.750  41.888 229.679  1.00 20.00     0.184 A 
HETATM    6  N1  7HP  1141       2.513  42.333 230.100  1.00 20.00    -0.318 N 
ATOM      7  H1  7HP  1141       2.451  42.727 231.039  1.00  0.00     0.169 HD
HETATM    8  C6  7HP  1141       1.361  42.285 229.358  1.00 20.00     0.276 A 
HETATM    9  O6  7HP  1141       0.335  42.776 229.776  1.00 20.00    -0.266 OA
HETATM   10  C5  7HP  1141       1.580  41.708 228.129  1.00 20.00     0.144 A 
HETATM   11  N7  7HP  1141       0.705  41.438 227.105  1.00 20.00    -0.294 N 
ATOM     12  H7  7HP  1141      -0.293  41.649 227.080  1.00  0.00     0.187 HD
HETATM   13  N8  7HP  1141       1.399  40.863 226.180  1.00 20.00    -0.309 N 
ATOM     14  H8  7HP  1141       0.994  40.552 225.297  1.00  0.00     0.186 HD
ENDROOT
TORSDOF 0
ENDMDL
MODEL 3
REMARK VINA RESULT:      -5.5      2.286      3.811
REMARK  0 active torsions:
REMARK  status: ('A' for Active; 'I' for Inactive)
ROOT
HETATM    1  C9  7HP  1141       0.684  42.568 226.685  1.00 20.00     0.139 A 
HETATM    2  C4  7HP  1141       1.844  42.224 227.375  1.00 20.00     0.084 A 
HETATM    3  N3  7HP  1141       2.513  42.995 228.262  1.00 20.00    -0.349 N 
ATOM      4  H3  7HP  1141       2.221  43.925 228.561  1.00  0.00     0.166 HD
HETATM    5  C2  7HP  1141       3.637  42.352 228.700  1.00 20.00     0.184 A 
HETATM    6  N1  7HP  1141       4.003  41.085 228.294  1.00 20.00    -0.318 N 
ATOM      7  H1  7HP  1141       4.866  40.700 228.678  1.00  0.00     0.169 HD
HETATM    8  C6  7HP  1141       3.299  40.303 227.414  1.00 20.00     0.276 A 
HETATM    9  O6  7HP  1141       3.650  39.167 227.178  1.00 20.00    -0.266 OA
HETATM   10  C5  7HP  1141       2.176  40.952 226.955  1.00 20.00     0.144 A 
HETATM   11  N7  7HP  1141       1.225  40.549 226.049  1.00 20.00    -0.294 N 
ATOM     12  H7  7HP  1141       1.184  39.654 225.561  1.00  0.00     0.187 HD
HETATM   13  N8  7HP  1141       0.393  41.531 225.939  1.00 20.00    -0.309 N 
ATOM     14  H8  7HP  1141      -0.420  41.501 225.324  1.00  0.00     0.186 HD
ENDROOT
TORSDOF 0
ENDMDL
MODEL 4
REMARK VINA RESULT:      -5.1      0.974      3.037
REMARK  0 active torsions:
REMARK  status: ('A' for Active; 'I' for Inactive)
ROOT
HETATM    1  C9  7HP  1141       0.823  40.329 226.335  1.00 20.00     0.139 A 
HETATM    2  C4  7HP  1141       1.590  40.951 227.318  1.00 20.00     0.084 A 
HETATM    3  N3  7HP  1141       2.937  40.923 227.428  1.00 20.00    -0.349 N 
ATOM      4  H3  7HP  1141       3.565  40.462 226.770  1.00  0.00     0.166 HD
HETATM    5  C2  7HP  1141       3.339  41.598 228.546  1.00 20.00     0.184 A 
HETATM    6  N1  7HP  1141       2.472  42.229 229.414  1.00 20.00    -0.318 N 
ATOM      7  H1  7HP  1141       2.877  42.700 230.223  1.00  0.00     0.169 HD
HETATM    8  C6  7HP  1141       1.108  42.274 229.275  1.00 20.00     0.276 A 
HETATM    9  O6  7HP  1141       0.428  42.923 230.040  1.00 20.00    -0.266 OA
HETATM   10  C5  7HP  1141       0.695  41.579 228.161  1.00 20.00     0.144 A 
HETATM   11  N7  7HP  1141      -0.569  41.346 227.677  1.00 20.00    -0.294 N 
ATOM     12  H7  7HP  1141      -1.448  41.682 228.072  1.00  0.00     0.187 HD
HETATM   13  N8  7HP  1141      -0.422  40.618 226.621  1.00 20.00    -0.309 N 
ATOM     14  H8  7HP  1141      -1.208  40.294 226.058  1.00  0.00     0.186 HD
ENDROOT
TORSDOF 0
ENDMDL
MODEL 5
REMARK VINA RESULT:      -5.0      1.814      2.192
REMARK  0 active torsions:
REMARK  status: ('A' for Active; 'I' for Inactive)
ROOT
HETATM    1  C9  7HP  1141       2.083  42.916 227.451  1.00 20.00     0.139 A 
HETATM    2  C4  7HP  1141       0.872  42.287 227.176  1.00 20.00     0.084 A 
HETATM    3  N3  7HP  1141       0.154  42.380 226.034  1.00 20.00    -0.349 N 
ATOM      4  H3  7HP  1141       0.441  42.907 225.209  1.00  0.00     0.166 HD
HETATM    5  C2  7HP  1141      -1.009  41.670 226.140  1.00 20.00     0.184 A 
HETATM    6  N1  7HP  1141      -1.366  40.950 227.261  1.00 20.00    -0.318 N 
ATOM      7  H1  7HP  1141      -2.261  40.460 227.238  1.00  0.00     0.169 HD
HETATM    8  C6  7HP  1141      -0.616  40.840 228.403  1.00 20.00     0.276 A 
HETATM    9  O6  7HP  1141      -0.969  40.116 229.309  1.00 20.00    -0.266 OA
HETATM   10  C5  7HP  1141       0.548  41.568 228.310  1.00 20.00     0.144 A 
HETATM   11  N7  7HP  1141       1.554  41.758 229.226  1.00 20.00    -0.294 N 
ATOM     12  H7  7HP  1141       1.614  41.357 230.162  1.00  0.00     0.187 HD
HETATM   13  N8  7HP  1141       2.408  42.548 228.665  1.00 20.00    -0.309 N 
ATOM     14  H8  7HP  1141       3.262  42.858 229.128  1.00  0.00     0.186 HD
ENDROOT
TORSDOF 0
ENDMDL
MODEL 6
REMARK VINA RESULT:      -4.9      9.909     10.600
REMARK  0 active torsions:
REMARK  status: ('A' for Active; 'I' for Inactive)
ROOT
HETATM    1  C9  7HP  1141       4.699  36.290 238.923  1.00 20.00     0.139 A 
HETATM    2  C4  7HP  1141       3.528  35.934 238.258  1.00 20.00     0.084 A 
HETATM    3  N3  7HP  1141       2.723  34.887 238.549  1.00 20.00    -0.349 N 
ATOM      4  H3  7HP  1141       2.863  34.243 239.327  1.00  0.00     0.166 HD
HETATM    5  C2  7HP  1141       1.694  34.813 237.652  1.00 20.00     0.184 A 
HETATM    6  N1  7HP  1141       1.514  35.707 236.617  1.00 20.00    -0.318 N 
ATOM      7  H1  7HP  1141       0.716  35.557 236.000  1.00  0.00     0.169 HD
HETATM    8  C6  7HP  1141       2.324  36.782 236.350  1.00 20.00     0.276 A 
HETATM    9  O6  7HP  1141       2.043  37.565 235.470  1.00 20.00    -0.266 OA
HETATM   10  C5  7HP  1141       3.372  36.851 237.239  1.00 20.00     0.144 A 
HETATM   11  N7  7HP  1141       4.420  37.737 237.310  1.00 20.00    -0.294 N 
ATOM     12  H7  7HP  1141       4.588  38.537 236.699  1.00  0.00     0.187 HD
HETATM   13  N8  7HP  1141       5.148  37.355 238.305  1.00 20.00    -0.309 N 
ATOM     14  H8  7HP  1141       6.001  37.839 238.586  1.00  0.00     0.186 HD
ENDROOT
TORSDOF 0
ENDMDL
MODEL 7
REMARK VINA RESULT:      -4.8      1.695      2.452
REMARK  0 active torsions:
REMARK  status: ('A' for Active; 'I' for Inactive)
ROOT
HETATM    1  C9  7HP  1141       3.859  42.354 229.169  1.00 20.00     0.139 A 
HETATM    2  C4  7HP  1141       2.548  41.964 228.909  1.00 20.00     0.084 A 
HETATM    3  N3  7HP  1141       1.424  42.554 229.375  1.00 20.00    -0.349 N 
ATOM      4  H3  7HP  1141       1.404  43.392 229.956  1.00  0.00     0.166 HD
HETATM    5  C2  7HP  1141       0.317  41.869 228.958  1.00 20.00     0.184 A 
HETATM    6  N1  7HP  1141       0.367  40.747 228.156  1.00 20.00    -0.318 N 
ATOM      7  H1  7HP  1141      -0.519  40.307 227.907  1.00  0.00     0.169 HD
HETATM    8  C6  7HP  1141       1.514  40.176 227.666  1.00 20.00     0.276 A 
HETATM    9  O6  7HP  1141       1.461  39.239 226.899  1.00 20.00    -0.266 OA
HETATM   10  C5  7HP  1141       2.633  40.850 228.098  1.00 20.00     0.144 A 
HETATM   11  N7  7HP  1141       3.965  40.597 227.874  1.00 20.00    -0.294 N 
ATOM     12  H7  7HP  1141       4.359  39.844 227.310  1.00  0.00     0.187 HD
HETATM   13  N8  7HP  1141       4.618  41.503 228.523  1.00 20.00    -0.309 N 
ATOM     14  H8  7HP  1141       5.636  41.552 228.531  1.00  0.00     0.186 HD
ENDROOT
TORSDOF 0
ENDMDL
MODEL 8
REMARK VINA RESULT:      -4.8      2.052      2.961
REMARK  0 active torsions:
REMARK  status: ('A' for Active; 'I' for Inactive)
ROOT
HETATM    1  C9  7HP  1141       0.212  40.982 228.239  1.00 20.00     0.139 A 
HETATM    2  C4  7HP  1141       1.565  40.764 227.990  1.00 20.00     0.084 A 
HETATM    3  N3  7HP  1141       2.093  39.809 227.191  1.00 20.00    -0.349 N 
ATOM      4  H3  7HP  1141       1.550  39.146 226.639  1.00  0.00     0.166 HD
HETATM    5  C2  7HP  1141       3.459  39.858 227.228  1.00 20.00     0.184 A 
HETATM    6  N1  7HP  1141       4.173  40.777 227.969  1.00 20.00    -0.318 N 
ATOM      7  H1  7HP  1141       5.191  40.722 227.930  1.00  0.00     0.169 HD
HETATM    8  C6  7HP  1141       3.623  41.759 228.753  1.00 20.00     0.276 A 
HETATM    9  O6  7HP  1141       4.326  42.578 229.304  1.00 20.00    -0.266 OA
HETATM   10  C5  7HP  1141       2.248  41.703 228.735  1.00 20.00     0.144 A 
HETATM   11  N7  7HP  1141       1.319  42.468 229.398  1.00 20.00    -0.294 N 
ATOM     12  H7  7HP  1141       1.505  43.250 230.025  1.00  0.00     0.187 HD
HETATM   13  N8  7HP  1141       0.163  41.997 229.067  1.00 20.00    -0.309 N 
ATOM     14  H8  7HP  1141      -0.713  42.382 229.420  1.00  0.00     0.186 HD
ENDROOT
TORSDOF 0
ENDMDL
MODEL 9
REMARK VINA RESULT:      -4.8      3.004      3.657
REMARK  0 active torsions:
REMARK  status: ('A' for Active; 'I' for Inactive)
ROOT
HETATM    1  C9  7HP  1141       0.861  42.706 226.472  1.00 20.00     0.139 A 
HETATM    2  C4  7HP  1141       0.423  41.555 227.124  1.00 20.00     0.084 A 
HETATM    3  N3  7HP  1141      -0.648  41.450 227.943  1.00 20.00    -0.349 N 
ATOM      4  H3  7HP  1141      -1.294  42.209 228.156  1.00  0.00     0.166 HD
HETATM    5  C2  7HP  1141      -0.742  40.182 228.446  1.00 20.00     0.184 A 
HETATM    6  N1  7HP  1141       0.135  39.165 228.128  1.00 20.00    -0.318 N 
ATOM      7  H1  7HP  1141      -0.022  38.256 228.565  1.00  0.00     0.169 HD
HETATM    8  C6  7HP  1141       1.202  39.278 227.273  1.00 20.00     0.276 A 
HETATM    9  O6  7HP  1141       1.871  38.310 226.986  1.00 20.00    -0.266 OA
HETATM   10  C5  7HP  1141       1.313  40.557 226.778  1.00 20.00     0.144 A 
HETATM   11  N7  7HP  1141       2.245  41.104 225.930  1.00 20.00    -0.294 N 
ATOM     12  H7  7HP  1141       3.032  40.624 225.494  1.00  0.00     0.187 HD
HETATM   13  N8  7HP  1141       1.925  42.348 225.797  1.00 20.00    -0.309 N 
ATOM     14  H8  7HP  1141       2.455  42.997 225.215  1.00  0.00     0.186 HD
ENDROOT
TORSDOF 0
ENDMDL
