MODEL 1
REMARK VINA RESULT:      -7.0      0.000      0.000
REMARK  1 active torsions:
REMARK  status: ('A' for Active; 'I' for Inactive)
REMARK    1  A    between atoms: C17_18  and  C20_21 
ROOT
HETATM    1  C1  STR  7012       3.426  34.317 237.302  1.00 20.00     0.022 C 
HETATM    2  C2  STR  7012       3.866  35.094 238.538  1.00 20.00     0.084 C 
HETATM    3  C3  STR  7012       4.139  36.534 238.223  1.00 20.00     0.149 C 
HETATM    4  O3  STR  7012       4.973  37.186 238.859  1.00 20.00    -0.293 OA
HETATM    5  C4  STR  7012       3.391  37.121 237.110  1.00 20.00     0.053 C 
HETATM    6  C5  STR  7012       2.477  36.418 236.383  1.00 20.00    -0.068 C 
HETATM    7  C6  STR  7012       1.635  37.146 235.363  1.00 20.00     0.035 C 
HETATM    8  C7  STR  7012       1.552  36.431 234.024  1.00 20.00     0.010 C 
HETATM    9  C8  STR  7012       1.150  34.976 234.199  1.00 20.00    -0.004 C 
HETATM   10  C9  STR  7012       2.123  34.258 235.152  1.00 20.00     0.002 C 
HETATM   11  C10 STR  7012       2.242  34.925 236.545  1.00 20.00    -0.016 C 
HETATM   12  C11 STR  7012       1.812  32.750 235.231  1.00 20.00     0.007 C 
HETATM   13  C12 STR  7012       1.722  32.057 233.854  1.00 20.00     0.011 C 
HETATM   14  C13 STR  7012       0.766  32.795 232.919  1.00 20.00    -0.030 C 
HETATM   15  C14 STR  7012       1.167  34.258 232.849  1.00 20.00    -0.001 C 
HETATM   16  C15 STR  7012       0.348  34.835 231.694  1.00 20.00     0.006 C 
HETATM   17  C16 STR  7012       0.379  33.689 230.679  1.00 20.00     0.013 C 
HETATM   18  C17 STR  7012       0.856  32.423 231.428  1.00 20.00     0.063 C 
HETATM   19  C18 STR  7012      -0.696  32.599 233.396  1.00 20.00     0.016 C 
HETATM   20  C19 STR  7012       0.972  34.720 237.379  1.00 20.00     0.020 C 
ENDROOT
BRANCH  18  21
HETATM   21  C20 STR  7012       0.085  31.172 231.088  1.00 20.00     0.128 C 
HETATM   22  O20 STR  7012       0.466  30.081 231.490  1.00 20.00    -0.298 OA
HETATM   23  C21 STR  7012      -1.121  31.300 230.229  1.00 20.00     0.091 C 
ENDBRANCH  18  21
TORSDOF 1
ENDMDL
MODEL 2
REMARK VINA RESULT:      -6.7      1.439      7.039
REMARK  1 active torsions:
REMARK  status: ('A' for Active; 'I' for Inactive)
REMARK    1  A    between atoms: C17_18  and  C20_21 
ROOT
HETATM    1  C1  STR  7012       0.708  34.944 231.446  1.00 20.00     0.022 C 
HETATM    2  C2  STR  7012      -0.042  34.643 230.153  1.00 20.00     0.084 C 
HETATM    3  C3  STR  7012       0.271  33.273 229.632  1.00 20.00     0.149 C 
HETATM    4  O3  STR  7012       0.242  33.020 228.424  1.00 20.00    -0.293 OA
HETATM    5  C4  STR  7012       0.638  32.257 230.622  1.00 20.00     0.053 C 
HETATM    6  C5  STR  7012       0.691  32.516 231.958  1.00 20.00    -0.068 C 
HETATM    7  C6  STR  7012       0.917  31.371 232.918  1.00 20.00     0.035 C 
HETATM    8  C7  STR  7012       1.965  31.668 233.979  1.00 20.00     0.010 C 
HETATM    9  C8  STR  7012       1.682  32.986 234.680  1.00 20.00    -0.004 C 
HETATM   10  C9  STR  7012       1.590  34.132 233.657  1.00 20.00     0.002 C 
HETATM   11  C10 STR  7012       0.525  33.903 232.555  1.00 20.00    -0.016 C 
HETATM   12  C11 STR  7012       1.442  35.495 234.363  1.00 20.00     0.007 C 
HETATM   13  C12 STR  7012       2.513  35.760 235.443  1.00 20.00     0.011 C 
HETATM   14  C13 STR  7012       2.602  34.603 236.436  1.00 20.00    -0.030 C 
HETATM   15  C14 STR  7012       2.800  33.305 235.674  1.00 20.00    -0.001 C 
HETATM   16  C15 STR  7012       3.157  32.272 236.743  1.00 20.00     0.006 C 
HETATM   17  C16 STR  7012       4.051  33.084 237.684  1.00 20.00     0.013 C 
HETATM   18  C17 STR  7012       3.850  34.577 237.336  1.00 20.00     0.063 C 
HETATM   19  C18 STR  7012       1.338  34.580 237.334  1.00 20.00     0.016 C 
HETATM   20  C19 STR  7012      -0.899  34.028 233.111  1.00 20.00     0.020 C 
ENDROOT
BRANCH  18  21
HETATM   21  C20 STR  7012       3.729  35.484 238.535  1.00 20.00     0.128 C 
HETATM   22  O20 STR  7012       3.465  35.022 239.637  1.00 20.00    -0.298 OA
HETATM   23  C21 STR  7012       3.904  36.946 238.333  1.00 20.00     0.091 C 
ENDBRANCH  18  21
TORSDOF 1
ENDMDL
MODEL 3
REMARK VINA RESULT:      -6.6      2.219      7.012
REMARK  1 active torsions:
REMARK  status: ('A' for Active; 'I' for Inactive)
REMARK    1  A    between atoms: C17_18  and  C20_21 
ROOT
HETATM    1  C1  STR  7012      -1.420  36.576 231.954  1.00 20.00     0.022 C 
HETATM    2  C2  STR  7012      -2.578  36.477 230.967  1.00 20.00     0.084 C 
HETATM    3  C3  STR  7012      -2.478  35.251 230.111  1.00 20.00     0.149 C 
HETATM    4  O3  STR  7012      -2.929  35.228 228.962  1.00 20.00    -0.293 OA
HETATM    5  C4  STR  7012      -1.795  34.093 230.692  1.00 20.00     0.053 C 
HETATM    6  C5  STR  7012      -1.276  34.099 231.952  1.00 20.00    -0.068 C 
HETATM    7  C6  STR  7012      -0.738  32.811 232.529  1.00 20.00     0.035 C 
HETATM    8  C7  STR  7012       0.618  32.967 233.201  1.00 20.00     0.010 C 
HETATM    9  C8  STR  7012       0.609  34.111 234.201  1.00 20.00    -0.004 C 
HETATM   10  C9  STR  7012       0.173  35.421 233.520  1.00 20.00     0.002 C 
HETATM   11  C10 STR  7012      -1.211  35.337 232.830  1.00 20.00    -0.016 C 
HETATM   12  C11 STR  7012       0.292  36.616 234.487  1.00 20.00     0.007 C 
HETATM   13  C12 STR  7012       1.677  36.739 235.161  1.00 20.00     0.011 C 
HETATM   14  C13 STR  7012       2.097  35.424 235.814  1.00 20.00    -0.030 C 
HETATM   15  C14 STR  7012       2.007  34.306 234.790  1.00 20.00    -0.001 C 
HETATM   16  C15 STR  7012       2.707  33.115 235.446  1.00 20.00     0.006 C 
HETATM   17  C16 STR  7012       3.880  33.790 236.161  1.00 20.00     0.013 C 
HETATM   18  C17 STR  7012       3.582  35.307 236.205  1.00 20.00     0.063 C 
HETATM   19  C18 STR  7012       1.228  35.155 237.070  1.00 20.00     0.016 C 
HETATM   20  C19 STR  7012      -2.349  35.267 233.855  1.00 20.00     0.020 C 
ENDROOT
BRANCH  18  21
HETATM   21  C20 STR  7012       3.895  35.964 237.526  1.00 20.00     0.128 C 
HETATM   22  O20 STR  7012       3.999  35.291 238.543  1.00 20.00    -0.298 OA
HETATM   23  C21 STR  7012       4.038  37.443 237.561  1.00 20.00     0.091 C 
ENDBRANCH  18  21
TORSDOF 1
ENDMDL
MODEL 4
REMARK VINA RESULT:      -6.5      2.703      4.069
REMARK  1 active torsions:
REMARK  status: ('A' for Active; 'I' for Inactive)
REMARK    1  A    between atoms: C17_18  and  C20_21 
ROOT
HETATM    1  C1  STR  7012       3.668  36.882 237.835  1.00 20.00     0.022 C 
HETATM    2  C2  STR  7012       4.970  36.866 238.630  1.00 20.00     0.084 C 
HETATM    3  C3  STR  7012       4.911  35.901 239.776  1.00 20.00     0.149 C 
HETATM    4  O3  STR  7012       5.556  36.091 240.812  1.00 20.00    -0.293 OA
HETATM    5  C4  STR  7012       4.032  34.740 239.619  1.00 20.00     0.053 C 
HETATM    6  C5  STR  7012       3.299  34.517 238.492  1.00 20.00    -0.068 C 
HETATM    7  C6  STR  7012       2.550  33.213 238.351  1.00 20.00     0.035 C 
HETATM    8  C7  STR  7012       1.117  33.386 237.872  1.00 20.00     0.010 C 
HETATM    9  C8  STR  7012       1.053  34.248 236.623  1.00 20.00    -0.004 C 
HETATM   10  C9  STR  7012       1.722  35.612 236.873  1.00 20.00     0.002 C 
HETATM   11  C10 STR  7012       3.194  35.510 237.346  1.00 20.00    -0.016 C 
HETATM   12  C11 STR  7012       1.544  36.549 235.662  1.00 20.00     0.007 C 
HETATM   13  C12 STR  7012       0.079  36.693 235.193  1.00 20.00     0.011 C 
HETATM   14  C13 STR  7012      -0.571  35.329 234.969  1.00 20.00    -0.030 C 
HETATM   15  C14 STR  7012      -0.403  34.484 236.219  1.00 20.00    -0.001 C 
HETATM   16  C15 STR  7012      -1.315  33.276 236.002  1.00 20.00     0.006 C 
HETATM   17  C16 STR  7012      -2.530  33.913 235.322  1.00 20.00     0.013 C 
HETATM   18  C17 STR  7012      -2.106  35.323 234.848  1.00 20.00     0.063 C 
HETATM   19  C18 STR  7012       0.032  34.658 233.708  1.00 20.00     0.016 C 
HETATM   20  C19 STR  7012       4.120  35.048 236.215  1.00 20.00     0.020 C 
ENDROOT
BRANCH  18  21
HETATM   21  C20 STR  7012      -2.587  35.684 233.465  1.00 20.00     0.128 C 
HETATM   22  O20 STR  7012      -2.285  36.759 232.964  1.00 20.00    -0.298 OA
HETATM   23  C21 STR  7012      -3.460  34.717 232.749  1.00 20.00     0.091 C 
ENDBRANCH  18  21
TORSDOF 1
ENDMDL
MODEL 5
REMARK VINA RESULT:      -6.5      1.705      2.079
REMARK  1 active torsions:
REMARK  status: ('A' for Active; 'I' for Inactive)
REMARK    1  A    between atoms: C17_18  and  C20_21 
ROOT
HETATM    1  C1  STR  7012       3.534  34.882 236.426  1.00 20.00     0.022 C 
HETATM    2  C2  STR  7012       4.330  35.138 237.701  1.00 20.00     0.084 C 
HETATM    3  C3  STR  7012       4.164  36.546 238.189  1.00 20.00     0.149 C 
HETATM    4  O3  STR  7012       5.058  37.121 238.816  1.00 20.00    -0.293 OA
HETATM    5  C4  STR  7012       2.902  37.214 237.863  1.00 20.00     0.053 C 
HETATM    6  C5  STR  7012       1.906  36.606 237.159  1.00 20.00    -0.068 C 
HETATM    7  C6  STR  7012       0.578  37.309 237.011  1.00 20.00     0.035 C 
HETATM    8  C7  STR  7012       0.036  37.290 235.590  1.00 20.00     0.010 C 
HETATM    9  C8  STR  7012       0.030  35.881 235.021  1.00 20.00    -0.004 C 
HETATM   10  C9  STR  7012       1.441  35.267 235.085  1.00 20.00     0.002 C 
HETATM   11  C10 STR  7012       2.047  35.238 236.511  1.00 20.00    -0.016 C 
HETATM   12  C11 STR  7012       1.481  33.893 234.387  1.00 20.00     0.007 C 
HETATM   13  C12 STR  7012       0.913  33.905 232.951  1.00 20.00     0.011 C 
HETATM   14  C13 STR  7012      -0.478  34.534 232.907  1.00 20.00    -0.030 C 
HETATM   15  C14 STR  7012      -0.428  35.903 233.562  1.00 20.00    -0.001 C 
HETATM   16  C15 STR  7012      -1.769  36.553 233.218  1.00 20.00     0.006 C 
HETATM   17  C16 STR  7012      -1.986  36.088 231.776  1.00 20.00     0.013 C 
HETATM   18  C17 STR  7012      -1.000  34.926 231.513  1.00 20.00     0.063 C 
HETATM   19  C18 STR  7012      -1.507  33.589 233.578  1.00 20.00     0.016 C 
HETATM   20  C19 STR  7012       1.348  34.203 237.401  1.00 20.00     0.020 C 
ENDROOT
BRANCH  18  21
HETATM   21  C20 STR  7012      -1.597  33.763 230.761  1.00 20.00     0.128 C 
HETATM   22  O20 STR  7012      -0.882  32.858 230.350  1.00 20.00    -0.298 OA
HETATM   23  C21 STR  7012      -3.061  33.766 230.507  1.00 20.00     0.091 C 
ENDBRANCH  18  21
TORSDOF 1
ENDMDL
MODEL 6
REMARK VINA RESULT:      -6.4      1.977      7.520
REMARK  1 active torsions:
REMARK  status: ('A' for Active; 'I' for Inactive)
REMARK    1  A    between atoms: C17_18  and  C20_21 
ROOT
HETATM    1  C1  STR  7012       0.807  33.283 228.985  1.00 20.00     0.022 C 
HETATM    2  C2  STR  7012       0.405  32.489 227.746  1.00 20.00     0.084 C 
HETATM    3  C3  STR  7012       0.743  31.035 227.883  1.00 20.00     0.149 C 
HETATM    4  O3  STR  7012       1.016  30.341 226.899  1.00 20.00    -0.293 OA
HETATM    5  C4  STR  7012       0.758  30.484 229.240  1.00 20.00     0.053 C 
HETATM    6  C5  STR  7012       0.474  31.232 230.342  1.00 20.00    -0.068 C 
HETATM    7  C6  STR  7012       0.352  30.546 231.682  1.00 20.00     0.035 C 
HETATM    8  C7  STR  7012       1.100  31.258 232.798  1.00 20.00     0.010 C 
HETATM    9  C8  STR  7012       0.741  32.734 232.850  1.00 20.00    -0.004 C 
HETATM   10  C9  STR  7012       1.008  33.402 231.489  1.00 20.00     0.002 C 
HETATM   11  C10 STR  7012       0.259  32.736 230.307  1.00 20.00    -0.016 C 
HETATM   12  C11 STR  7012       0.780  34.925 231.564  1.00 20.00     0.007 C 
HETATM   13  C12 STR  7012       1.544  35.616 232.715  1.00 20.00     0.011 C 
HETATM   14  C13 STR  7012       1.279  34.926 234.052  1.00 20.00    -0.030 C 
HETATM   15  C14 STR  7012       1.576  33.443 233.916  1.00 20.00    -0.001 C 
HETATM   16  C15 STR  7012       1.558  32.906 235.348  1.00 20.00     0.006 C 
HETATM   17  C16 STR  7012       2.229  34.044 236.122  1.00 20.00     0.013 C 
HETATM   18  C17 STR  7012       2.239  35.286 235.200  1.00 20.00     0.063 C 
HETATM   19  C18 STR  7012      -0.175  35.205 234.511  1.00 20.00     0.016 C 
HETATM   20  C19 STR  7012      -1.247  33.015 230.364  1.00 20.00     0.020 C 
ENDROOT
BRANCH  18  21
HETATM   21  C20 STR  7012       1.872  36.575 235.891  1.00 20.00     0.128 C 
HETATM   22  O20 STR  7012       1.890  37.634 235.277  1.00 20.00    -0.298 OA
HETATM   23  C21 STR  7012       1.525  36.526 237.335  1.00 20.00     0.091 C 
ENDBRANCH  18  21
TORSDOF 1
ENDMDL
MODEL 7
REMARK VINA RESULT:      -6.3      1.941      3.372
REMARK  1 active torsions:
REMARK  status: ('A' for Active; 'I' for Inactive)
REMARK    1  A    between atoms: C17_18  and  C20_21 
ROOT
HETATM    1  C1  STR  7012       2.716  35.332 238.061  1.00 20.00     0.022 C 
HETATM    2  C2  STR  7012       3.744  35.312 239.188  1.00 20.00     0.084 C 
HETATM    3  C3  STR  7012       4.169  33.916 239.530  1.00 20.00     0.149 C 
HETATM    4  O3  STR  7012       4.527  33.613 240.672  1.00 20.00    -0.293 OA
HETATM    5  C4  STR  7012       4.115  32.925 238.453  1.00 20.00     0.053 C 
HETATM    6  C5  STR  7012       3.710  33.232 237.189  1.00 20.00    -0.068 C 
HETATM    7  C6  STR  7012       3.842  32.190 236.104  1.00 20.00     0.035 C 
HETATM    8  C7  STR  7012       2.597  32.051 235.242  1.00 20.00     0.010 C 
HETATM    9  C8  STR  7012       2.135  33.400 234.718  1.00 20.00    -0.004 C 
HETATM   10  C9  STR  7012       1.896  34.378 235.883  1.00 20.00     0.002 C 
HETATM   11  C10 STR  7012       3.134  34.581 236.793  1.00 20.00    -0.016 C 
HETATM   12  C11 STR  7012       1.295  35.706 235.380  1.00 20.00     0.007 C 
HETATM   13  C12 STR  7012       0.040  35.529 234.498  1.00 20.00     0.011 C 
HETATM   14  C13 STR  7012       0.292  34.542 233.360  1.00 20.00    -0.030 C 
HETATM   15  C14 STR  7012       0.830  33.244 233.936  1.00 20.00    -0.001 C 
HETATM   16  C15 STR  7012       0.778  32.248 232.776  1.00 20.00     0.006 C 
HETATM   17  C16 STR  7012      -0.538  32.627 232.092  1.00 20.00     0.013 C 
HETATM   18  C17 STR  7012      -0.958  34.013 232.634  1.00 20.00     0.063 C 
HETATM   19  C18 STR  7012       1.248  35.173 232.315  1.00 20.00     0.016 C 
HETATM   20  C19 STR  7012       4.227  35.390 236.086  1.00 20.00     0.020 C 
ENDROOT
BRANCH  18  21
HETATM   21  C20 STR  7012      -1.470  34.963 231.580  1.00 20.00     0.128 C 
HETATM   22  O20 STR  7012      -1.251  34.751 230.395  1.00 20.00    -0.298 OA
HETATM   23  C21 STR  7012      -2.214  36.171 232.024  1.00 20.00     0.091 C 
ENDBRANCH  18  21
TORSDOF 1
ENDMDL
MODEL 8
REMARK VINA RESULT:      -6.3      2.646      7.432
REMARK  1 active torsions:
REMARK  status: ('A' for Active; 'I' for Inactive)
REMARK    1  A    between atoms: C17_18  and  C20_21 
ROOT
HETATM    1  C1  STR  7012       1.790  35.012 228.593  1.00 20.00     0.022 C 
HETATM    2  C2  STR  7012       1.742  34.967 227.069  1.00 20.00     0.084 C 
HETATM    3  C3  STR  7012       1.861  33.567 226.549  1.00 20.00     0.149 C 
HETATM    4  O3  STR  7012       2.372  33.329 225.450  1.00 20.00    -0.293 OA
HETATM    5  C4  STR  7012       1.368  32.494 227.416  1.00 20.00     0.053 C 
HETATM    6  C5  STR  7012       0.814  32.731 228.638  1.00 20.00    -0.068 C 
HETATM    7  C6  STR  7012       0.184  31.584 229.391  1.00 20.00     0.035 C 
HETATM    8  C7  STR  7012       0.589  31.524 230.856  1.00 20.00     0.010 C 
HETATM    9  C8  STR  7012       0.389  32.866 231.539  1.00 20.00    -0.004 C 
HETATM   10  C9  STR  7012       1.161  33.972 230.794  1.00 20.00     0.002 C 
HETATM   11  C10 STR  7012       0.781  34.100 229.298  1.00 20.00    -0.016 C 
HETATM   12  C11 STR  7012       1.081  35.312 231.552  1.00 20.00     0.007 C 
HETATM   13  C12 STR  7012       1.487  35.214 233.039  1.00 20.00     0.011 C 
HETATM   14  C13 STR  7012       0.724  34.101 233.754  1.00 20.00    -0.030 C 
HETATM   15  C14 STR  7012       0.893  32.805 232.981  1.00 20.00    -0.001 C 
HETATM   16  C15 STR  7012       0.345  31.720 233.910  1.00 20.00     0.006 C 
HETATM   17  C16 STR  7012       0.836  32.197 235.279  1.00 20.00     0.013 C 
HETATM   18  C17 STR  7012       1.281  33.670 235.122  1.00 20.00     0.063 C 
HETATM   19  C18 STR  7012      -0.763  34.505 233.924  1.00 20.00     0.016 C 
HETATM   20  C19 STR  7012      -0.621  34.693 229.119  1.00 20.00     0.020 C 
ENDROOT
BRANCH  18  21
HETATM   21  C20 STR  7012       0.842  34.575 236.247  1.00 20.00     0.128 C 
HETATM   22  O20 STR  7012       1.296  35.707 236.344  1.00 20.00    -0.298 OA
HETATM   23  C21 STR  7012      -0.125  34.042 237.242  1.00 20.00     0.091 C 
ENDBRANCH  18  21
TORSDOF 1
ENDMDL
MODEL 9
REMARK VINA RESULT:      -6.3      1.666      7.074
REMARK  1 active torsions:
REMARK  status: ('A' for Active; 'I' for Inactive)
REMARK    1  A    between atoms: C17_18  and  C20_21 
ROOT
HETATM    1  C1  STR  7012      -0.181  35.454 230.937  1.00 20.00     0.022 C 
HETATM    2  C2  STR  7012      -1.058  35.184 229.719  1.00 20.00     0.084 C 
HETATM    3  C3  STR  7012      -0.764  33.849 229.105  1.00 20.00     0.149 C 
HETATM    4  O3  STR  7012      -0.916  33.648 227.896  1.00 20.00    -0.293 OA
HETATM    5  C4  STR  7012      -0.262  32.805 230.001  1.00 20.00     0.053 C 
HETATM    6  C5  STR  7012      -0.072  33.007 231.335  1.00 20.00    -0.068 C 
HETATM    7  C6  STR  7012       0.289  31.831 232.211  1.00 20.00     0.035 C 
HETATM    8  C7  STR  7012       1.437  32.117 233.167  1.00 20.00     0.010 C 
HETATM    9  C8  STR  7012       1.194  33.393 233.954  1.00 20.00    -0.004 C 
HETATM   10  C9  STR  7012       0.958  34.579 233.001  1.00 20.00     0.002 C 
HETATM   11  C10 STR  7012      -0.212  34.362 232.010  1.00 20.00    -0.016 C 
HETATM   12  C11 STR  7012       0.848  35.905 233.780  1.00 20.00     0.007 C 
HETATM   13  C12 STR  7012       2.022  36.159 234.751  1.00 20.00     0.011 C 
HETATM   14  C13 STR  7012       2.251  34.964 235.674  1.00 20.00    -0.030 C 
HETATM   15  C14 STR  7012       2.404  33.707 234.836  1.00 20.00    -0.001 C 
HETATM   16  C15 STR  7012       2.904  32.642 235.812  1.00 20.00     0.006 C 
HETATM   17  C16 STR  7012       3.871  33.442 236.688  1.00 20.00     0.013 C 
HETATM   18  C17 STR  7012       3.590  34.942 236.433  1.00 20.00     0.063 C 
HETATM   19  C18 STR  7012       1.094  34.860 236.700  1.00 20.00     0.016 C 
HETATM   20  C19 STR  7012      -1.571  34.414 232.720  1.00 20.00     0.020 C 
ENDROOT
BRANCH  18  21
HETATM   21  C20 STR  7012       3.573  35.791 237.679  1.00 20.00     0.128 C 
HETATM   22  O20 STR  7012       3.576  35.269 238.786  1.00 20.00    -0.298 OA
HETATM   23  C21 STR  7012       3.520  37.269 237.523  1.00 20.00     0.091 C 
ENDBRANCH  18  21
TORSDOF 1
ENDMDL
