MODEL 1
REMARK VINA RESULT:      -6.7      0.000      0.000
REMARK  8 active torsions:
REMARK  status: ('A' for Active; 'I' for Inactive)
REMARK    1  A    between atoms: C1_1  and  O4_24 
REMARK    2  A    between atoms: C10_13  and  C8_11 
REMARK    3  A    between atoms: C10_13  and  C11_14 
REMARK    4  A    between atoms: C11_14  and  C12_15 
REMARK    5  A    between atoms: C14_17  and  O3_18 
REMARK    6  A    between atoms: C23_25  and  O4_24 
REMARK    7  A    between atoms: C16_27  and  C23_25 
REMARK    8  A    between atoms: C16_27  and  C17_29 
ROOT
HETATM    1  C1  803  1161       3.221  33.529 238.312  1.00 20.00     0.141 C 
HETATM    2  C2  803  1161       3.422  33.023 239.761  1.00 20.00     0.041 C 
HETATM    3  C3  803  1161       4.673  33.651 240.421  1.00 20.00     0.007 C 
HETATM    4  C21 803  1161       5.922  32.769 240.212  1.00 20.00     0.014 C 
HETATM    5  C4  803  1161       4.975  35.052 239.940  1.00 20.00    -0.015 C 
HETATM    6  C24 803  1161       4.255  35.694 239.013  1.00 20.00    -0.055 C 
HETATM    7  C5  803  1161       4.624  37.055 238.604  1.00 20.00     0.004 C 
HETATM    8  C6  803  1161       3.950  37.719 237.659  1.00 20.00    -0.022 C 
HETATM    9  C7  803  1161       2.771  37.133 236.930  1.00 20.00     0.009 C 
HETATM   10  C20 803  1161       1.413  37.578 237.508  1.00 20.00     0.014 C 
HETATM   11  C8  803  1161       2.911  35.602 236.945  1.00 20.00     0.004 C 
HETATM   12  C9  803  1161       3.057  35.057 238.374  1.00 20.00     0.052 C 
ENDROOT
BRANCH  11  13
HETATM   13  C10 803  1161       1.701  34.942 236.276  1.00 20.00     0.009 C 
BRANCH  13  14
HETATM   14  C11 803  1161       1.975  34.789 234.770  1.00 20.00     0.033 C 
BRANCH  14  15
HETATM   15  C12 803  1161       1.208  35.922 234.083  1.00 20.00     0.134 C 
HETATM   16  O1  803  1161       1.302  35.666 232.669  1.00 20.00    -0.316 OA
HETATM   17  C22 803  1161       0.275  35.033 232.096  1.00 20.00     0.261 C 
HETATM   18  C15 803  1161      -0.911  34.643 232.932  1.00 20.00     0.142 C 
HETATM   19  O2  803  1161       0.300  34.773 230.902  1.00 20.00    -0.265 OA
HETATM   20  C14 803  1161      -1.315  35.883 233.739  1.00 20.00     0.130 C 
HETATM   21  C13 803  1161      -0.178  36.073 234.748  1.00 20.00     0.065 C 
BRANCH  20  22
HETATM   22  O3  803  1161      -1.441  37.048 232.918  1.00 20.00    -0.395 OA
ATOM     23  H3  803  1161      -1.447  36.800 232.000  1.00  0.00     0.210 HD
ENDBRANCH  20  22
ENDBRANCH  14  15
ENDBRANCH  13  14
ENDBRANCH  11  13
BRANCH   1  24
HETATM   24  O4  803  1161       4.374  33.224 237.514  1.00 20.00    -0.315 OA
BRANCH  24  25
HETATM   25  C23 803  1161       4.357  31.965 237.068  1.00 20.00     0.263 C 
HETATM   26  O5  803  1161       5.086  31.090 237.512  1.00 20.00    -0.265 OA
BRANCH  25  27
HETATM   27  C16 803  1161       3.358  31.721 235.970  1.00 20.00     0.081 C 
HETATM   28  C19 803  1161       4.082  31.245 234.697  1.00 20.00     0.020 C 
BRANCH  27  29
HETATM   29  C17 803  1161       2.324  30.677 236.417  1.00 20.00     0.010 C 
HETATM   30  C18 803  1161       0.926  31.311 236.298  1.00 20.00     0.006 C 
ENDBRANCH  27  29
ENDBRANCH  25  27
ENDBRANCH  24  25
ENDBRANCH   1  24
TORSDOF 8
ENDMDL
MODEL 2
REMARK VINA RESULT:      -6.5      1.924      6.414
REMARK  8 active torsions:
REMARK  status: ('A' for Active; 'I' for Inactive)
REMARK    1  A    between atoms: C1_1  and  O4_24 
REMARK    2  A    between atoms: C10_13  and  C8_11 
REMARK    3  A    between atoms: C10_13  and  C11_14 
REMARK    4  A    between atoms: C11_14  and  C12_15 
REMARK    5  A    between atoms: C14_17  and  O3_18 
REMARK    6  A    between atoms: C23_25  and  O4_24 
REMARK    7  A    between atoms: C16_27  and  C23_25 
REMARK    8  A    between atoms: C16_27  and  C17_29 
ROOT
HETATM    1  C1  803  1161       1.278  34.538 233.473  1.00 20.00     0.141 C 
HETATM    2  C2  803  1161       1.107  34.883 231.974  1.00 20.00     0.041 C 
HETATM    3  C3  803  1161      -0.379  35.095 231.598  1.00 20.00     0.007 C 
HETATM    4  C21 803  1161      -1.028  33.784 231.107  1.00 20.00     0.014 C 
HETATM    5  C4  803  1161      -1.215  35.665 232.721  1.00 20.00    -0.015 C 
HETATM    6  C24 803  1161      -0.737  35.942 233.940  1.00 20.00    -0.055 C 
HETATM    7  C5  803  1161      -1.624  36.492 234.972  1.00 20.00     0.004 C 
HETATM    8  C6  803  1161      -1.194  36.754 236.211  1.00 20.00    -0.022 C 
HETATM    9  C7  803  1161       0.220  36.500 236.657  1.00 20.00     0.009 C 
HETATM   10  C20 803  1161       1.108  37.760 236.619  1.00 20.00     0.014 C 
HETATM   11  C8  803  1161       0.805  35.378 235.783  1.00 20.00     0.004 C 
HETATM   12  C9  803  1161       0.703  35.711 234.286  1.00 20.00     0.052 C 
ENDROOT
BRANCH  11  13
HETATM   13  C10 803  1161       2.271  35.120 236.142  1.00 20.00     0.009 C 
BRANCH  13  14
HETATM   14  C11 803  1161       2.355  34.582 237.580  1.00 20.00     0.033 C 
BRANCH  14  15
HETATM   15  C12 803  1161       3.821  34.719 238.000  1.00 20.00     0.134 C 
HETATM   16  O1  803  1161       4.329  35.869 237.300  1.00 20.00    -0.316 OA
HETATM   17  C22 803  1161       4.347  37.027 237.965  1.00 20.00     0.261 C 
HETATM   18  C15 803  1161       3.863  37.071 239.386  1.00 20.00     0.142 C 
HETATM   19  O2  803  1161       4.754  38.044 237.422  1.00 20.00    -0.265 OA
HETATM   20  C14 803  1161       4.550  35.916 240.127  1.00 20.00     0.130 C 
HETATM   21  C13 803  1161       3.915  34.650 239.541  1.00 20.00     0.065 C 
BRANCH  20  22
HETATM   22  O3  803  1161       5.964  35.900 239.912  1.00 20.00    -0.395 OA
ATOM     23  H3  803  1161       6.207  35.139 239.397  1.00  0.00     0.210 HD
ENDBRANCH  20  22
ENDBRANCH  14  15
ENDBRANCH  13  14
ENDBRANCH  11  13
BRANCH   1  24
HETATM   24  O4  803  1161       0.539  33.351 233.798  1.00 20.00    -0.315 OA
BRANCH  24  25
HETATM   25  C23 803  1161       1.290  32.251 233.701  1.00 20.00     0.263 C 
HETATM   26  O5  803  1161       1.404  31.610 232.666  1.00 20.00    -0.265 OA
BRANCH  25  27
HETATM   27  C16 803  1161       1.986  31.873 234.980  1.00 20.00     0.081 C 
HETATM   28  C19 803  1161       1.207  30.751 235.690  1.00 20.00     0.020 C 
BRANCH  27  29
HETATM   29  C17 803  1161       3.424  31.421 234.688  1.00 20.00     0.010 C 
HETATM   30  C18 803  1161       4.209  31.446 236.013  1.00 20.00     0.006 C 
ENDBRANCH  27  29
ENDBRANCH  25  27
ENDBRANCH  24  25
ENDBRANCH   1  24
TORSDOF 8
ENDMDL
MODEL 3
REMARK VINA RESULT:      -6.5      2.172      4.896
REMARK  8 active torsions:
REMARK  status: ('A' for Active; 'I' for Inactive)
REMARK    1  A    between atoms: C1_1  and  O4_24 
REMARK    2  A    between atoms: C10_13  and  C8_11 
REMARK    3  A    between atoms: C10_13  and  C11_14 
REMARK    4  A    between atoms: C11_14  and  C12_15 
REMARK    5  A    between atoms: C14_17  and  O3_18 
REMARK    6  A    between atoms: C23_25  and  O4_24 
REMARK    7  A    between atoms: C16_27  and  C23_25 
REMARK    8  A    between atoms: C16_27  and  C17_29 
ROOT
HETATM    1  C1  803  1161       2.681  35.001 235.443  1.00 20.00     0.141 C 
HETATM    2  C2  803  1161       4.026  35.247 236.169  1.00 20.00     0.041 C 
HETATM    3  C3  803  1161       4.043  34.614 237.581  1.00 20.00     0.007 C 
HETATM    4  C21 803  1161       3.573  35.619 238.654  1.00 20.00     0.014 C 
HETATM    5  C4  803  1161       3.213  33.355 237.692  1.00 20.00    -0.015 C 
HETATM    6  C24 803  1161       2.505  32.837 236.682  1.00 20.00    -0.055 C 
HETATM    7  C5  803  1161       1.724  31.609 236.883  1.00 20.00     0.004 C 
HETATM    8  C6  803  1161       0.978  31.077 235.908  1.00 20.00    -0.022 C 
HETATM    9  C7  803  1161       0.865  31.687 234.538  1.00 20.00     0.009 C 
HETATM   10  C20 803  1161       1.797  31.033 233.499  1.00 20.00     0.014 C 
HETATM   11  C8  803  1161       1.135  33.195 234.660  1.00 20.00     0.004 C 
HETATM   12  C9  803  1161       2.490  33.479 235.327  1.00 20.00     0.052 C 
ENDROOT
BRANCH  11  13
HETATM   13  C10 803  1161       1.102  33.865 233.283  1.00 20.00     0.009 C 
BRANCH  13  14
HETATM   14  C11 803  1161      -0.346  34.254 232.942  1.00 20.00     0.033 C 
BRANCH  14  15
HETATM   15  C12 803  1161      -0.263  35.589 232.197  1.00 20.00     0.134 C 
HETATM   16  O1  803  1161       0.160  35.270 230.857  1.00 20.00    -0.316 OA
HETATM   17  C22 803  1161      -0.794  35.160 229.929  1.00 20.00     0.261 C 
HETATM   18  C15 803  1161      -2.229  35.384 230.314  1.00 20.00     0.142 C 
HETATM   19  O2  803  1161      -0.502  34.878 228.776  1.00 20.00    -0.265 OA
HETATM   20  C14 803  1161      -2.278  36.698 231.104  1.00 20.00     0.130 C 
HETATM   21  C13 803  1161      -1.570  36.379 232.425  1.00 20.00     0.065 C 
BRANCH  20  22
HETATM   22  O3  803  1161      -1.602  37.762 230.429  1.00 20.00    -0.395 OA
ATOM     23  H3  803  1161      -2.091  38.572 230.526  1.00  0.00     0.210 HD
ENDBRANCH  20  22
ENDBRANCH  14  15
ENDBRANCH  13  14
ENDBRANCH  11  13
BRANCH   1  24
HETATM   24  O4  803  1161       1.596  35.541 236.211  1.00 20.00    -0.315 OA
BRANCH  24  25
HETATM   25  C23 803  1161       1.120  36.672 235.681  1.00 20.00     0.263 C 
HETATM   26  O5  803  1161       1.785  37.402 234.962  1.00 20.00    -0.265 OA
BRANCH  25  27
HETATM   27  C16 803  1161      -0.309  36.963 236.048  1.00 20.00     0.081 C 
HETATM   28  C19 803  1161      -1.021  35.662 236.463  1.00 20.00     0.020 C 
BRANCH  27  29
HETATM   29  C17 803  1161      -0.366  37.988 237.189  1.00 20.00     0.010 C 
HETATM   30  C18 803  1161      -1.777  38.606 237.205  1.00 20.00     0.006 C 
ENDBRANCH  27  29
ENDBRANCH  25  27
ENDBRANCH  24  25
ENDBRANCH   1  24
TORSDOF 8
ENDMDL
MODEL 4
REMARK VINA RESULT:      -6.4      1.973      2.693
REMARK  8 active torsions:
REMARK  status: ('A' for Active; 'I' for Inactive)
REMARK    1  A    between atoms: C1_1  and  O4_24 
REMARK    2  A    between atoms: C10_13  and  C8_11 
REMARK    3  A    between atoms: C10_13  and  C11_14 
REMARK    4  A    between atoms: C11_14  and  C12_15 
REMARK    5  A    between atoms: C14_17  and  O3_18 
REMARK    6  A    between atoms: C23_25  and  O4_24 
REMARK    7  A    between atoms: C16_27  and  C23_25 
REMARK    8  A    between atoms: C16_27  and  C17_29 
ROOT
HETATM    1  C1  803  1161       1.553  33.545 236.580  1.00 20.00     0.141 C 
HETATM    2  C2  803  1161       1.925  32.607 237.754  1.00 20.00     0.041 C 
HETATM    3  C3  803  1161       3.370  32.851 238.250  1.00 20.00     0.007 C 
HETATM    4  C21 803  1161       4.376  31.928 237.530  1.00 20.00     0.014 C 
HETATM    5  C4  803  1161       3.828  34.284 238.105  1.00 20.00    -0.015 C 
HETATM    6  C24 803  1161       3.078  35.257 237.576  1.00 20.00    -0.055 C 
HETATM    7  C5  803  1161       3.608  36.623 237.473  1.00 20.00     0.004 C 
HETATM    8  C6  803  1161       2.902  37.617 236.922  1.00 20.00    -0.022 C 
HETATM    9  C7  803  1161       1.522  37.425 236.356  1.00 20.00     0.009 C 
HETATM   10  C20 803  1161       0.399  37.837 237.330  1.00 20.00     0.014 C 
HETATM   11  C8  803  1161       1.379  35.955 235.927  1.00 20.00     0.004 C 
HETATM   12  C9  803  1161       1.686  34.992 237.085  1.00 20.00     0.052 C 
ENDROOT
BRANCH  11  13
HETATM   13  C10 803  1161      -0.034  35.678 235.405  1.00 20.00     0.009 C 
BRANCH  13  14
HETATM   14  C11 803  1161      -0.168  36.243 233.981  1.00 20.00     0.033 C 
BRANCH  14  15
HETATM   15  C12 803  1161      -1.666  36.467 233.753  1.00 20.00     0.134 C 
HETATM   16  O1  803  1161      -1.787  37.032 232.434  1.00 20.00    -0.316 OA
HETATM   17  C22 803  1161      -2.071  36.191 231.436  1.00 20.00     0.261 C 
HETATM   18  C15 803  1161      -2.263  34.731 231.732  1.00 20.00     0.142 C 
HETATM   19  O2  803  1161      -2.173  36.607 230.291  1.00 20.00    -0.265 OA
HETATM   20  C14 803  1161      -3.232  34.640 232.917  1.00 20.00     0.130 C 
HETATM   21  C13 803  1161      -2.432  35.174 234.110  1.00 20.00     0.065 C 
BRANCH  20  22
HETATM   22  O3  803  1161      -4.406  35.433 232.720  1.00 20.00    -0.395 OA
ATOM     23  H3  803  1161      -4.812  35.627 233.557  1.00  0.00     0.210 HD
ENDBRANCH  20  22
ENDBRANCH  14  15
ENDBRANCH  13  14
ENDBRANCH  11  13
BRANCH   1  24
HETATM   24  O4  803  1161       2.462  33.357 235.486  1.00 20.00    -0.315 OA
BRANCH  24  25
HETATM   25  C23 803  1161       2.066  32.379 234.666  1.00 20.00     0.263 C 
HETATM   26  O5  803  1161       2.714  31.360 234.481  1.00 20.00    -0.265 OA
BRANCH  25  27
HETATM   27  C16 803  1161       0.747  32.646 233.994  1.00 20.00     0.081 C 
HETATM   28  C19 803  1161       0.976  33.029 232.520  1.00 20.00     0.020 C 
BRANCH  27  29
HETATM   29  C17 803  1161      -0.156  31.408 234.089  1.00 20.00     0.010 C 
HETATM   30  C18 803  1161      -1.297  31.725 235.074  1.00 20.00     0.006 C 
ENDBRANCH  27  29
ENDBRANCH  25  27
ENDBRANCH  24  25
ENDBRANCH   1  24
TORSDOF 8
ENDMDL
MODEL 5
REMARK VINA RESULT:      -6.3      2.314      7.697
REMARK  8 active torsions:
REMARK  status: ('A' for Active; 'I' for Inactive)
REMARK    1  A    between atoms: C1_1  and  O4_24 
REMARK    2  A    between atoms: C10_13  and  C8_11 
REMARK    3  A    between atoms: C10_13  and  C11_14 
REMARK    4  A    between atoms: C11_14  and  C12_15 
REMARK    5  A    between atoms: C14_17  and  O3_18 
REMARK    6  A    between atoms: C23_25  and  O4_24 
REMARK    7  A    between atoms: C16_27  and  C23_25 
REMARK    8  A    between atoms: C16_27  and  C17_29 
ROOT
HETATM    1  C1  803  1161      -0.901  36.204 232.634  1.00 20.00     0.141 C 
HETATM    2  C2  803  1161      -1.672  36.972 231.533  1.00 20.00     0.041 C 
HETATM    3  C3  803  1161      -2.854  36.143 230.974  1.00 20.00     0.007 C 
HETATM    4  C21 803  1161      -2.428  35.317 229.741  1.00 20.00     0.014 C 
HETATM    5  C4  803  1161      -3.482  35.218 231.991  1.00 20.00    -0.015 C 
HETATM    6  C24 803  1161      -3.054  35.096 233.253  1.00 20.00    -0.055 C 
HETATM    7  C5  803  1161      -3.725  34.168 234.172  1.00 20.00     0.004 C 
HETATM    8  C6  803  1161      -3.309  33.993 235.432  1.00 20.00    -0.022 C 
HETATM    9  C7  803  1161      -2.123  34.715 236.009  1.00 20.00     0.009 C 
HETATM   10  C20 803  1161      -2.507  35.958 236.837  1.00 20.00     0.014 C 
HETATM   11  C8  803  1161      -1.176  35.084 234.855  1.00 20.00     0.004 C 
HETATM   12  C9  803  1161      -1.895  35.896 233.766  1.00 20.00     0.052 C 
ENDROOT
BRANCH  11  13
HETATM   13  C10 803  1161       0.022  35.885 235.371  1.00 20.00     0.009 C 
BRANCH  13  14
HETATM   14  C11 803  1161       1.036  34.924 236.016  1.00 20.00     0.033 C 
BRANCH  14  15
HETATM   15  C12 803  1161       1.356  35.508 237.394  1.00 20.00     0.134 C 
HETATM   16  O1  803  1161       2.208  34.547 238.045  1.00 20.00    -0.316 OA
HETATM   17  C22 803  1161       3.525  34.763 237.984  1.00 20.00     0.261 C 
HETATM   18  C15 803  1161       4.043  35.979 237.271  1.00 20.00     0.142 C 
HETATM   19  O2  803  1161       4.302  33.976 238.505  1.00 20.00    -0.265 OA
HETATM   20  C14 803  1161       3.239  37.177 237.792  1.00 20.00     0.130 C 
HETATM   21  C13 803  1161       1.829  36.970 237.228  1.00 20.00     0.065 C 
BRANCH  20  22
HETATM   22  O3  803  1161       3.194  37.220 239.221  1.00 20.00    -0.395 OA
ATOM     23  H3  803  1161       3.863  36.651 239.585  1.00  0.00     0.210 HD
ENDBRANCH  20  22
ENDBRANCH  14  15
ENDBRANCH  13  14
ENDBRANCH  11  13
BRANCH   1  24
HETATM   24  O4  803  1161      -0.399  34.963 232.116  1.00 20.00    -0.315 OA
BRANCH  24  25
HETATM   25  C23 803  1161       0.908  35.025 231.844  1.00 20.00     0.263 C 
HETATM   26  O5  803  1161       1.702  35.654 232.527  1.00 20.00    -0.265 OA
BRANCH  25  27
HETATM   27  C16 803  1161       1.313  34.247 230.623  1.00 20.00     0.081 C 
HETATM   28  C19 803  1161       0.330  33.085 230.389  1.00 20.00     0.020 C 
BRANCH  27  29
HETATM   29  C17 803  1161       1.351  35.168 229.395  1.00 20.00     0.010 C 
HETATM   30  C18 803  1161       1.221  34.290 228.136  1.00 20.00     0.006 C 
ENDBRANCH  27  29
ENDBRANCH  25  27
ENDBRANCH  24  25
ENDBRANCH   1  24
TORSDOF 8
ENDMDL
MODEL 6
REMARK VINA RESULT:      -6.2      1.962      4.351
REMARK  8 active torsions:
REMARK  status: ('A' for Active; 'I' for Inactive)
REMARK    1  A    between atoms: C1_1  and  O4_24 
REMARK    2  A    between atoms: C10_13  and  C8_11 
REMARK    3  A    between atoms: C10_13  and  C11_14 
REMARK    4  A    between atoms: C11_14  and  C12_15 
REMARK    5  A    between atoms: C14_17  and  O3_18 
REMARK    6  A    between atoms: C23_25  and  O4_24 
REMARK    7  A    between atoms: C16_27  and  C23_25 
REMARK    8  A    between atoms: C16_27  and  C17_29 
ROOT
HETATM    1  C1  803  1161       3.165  35.924 236.543  1.00 20.00     0.141 C 
HETATM    2  C2  803  1161       4.328  36.689 237.220  1.00 20.00     0.041 C 
HETATM    3  C3  803  1161       4.497  36.282 238.704  1.00 20.00     0.007 C 
HETATM    4  C21 803  1161       3.686  37.206 239.637  1.00 20.00     0.014 C 
HETATM    5  C4  803  1161       4.121  34.846 238.987  1.00 20.00    -0.015 C 
HETATM    6  C24 803  1161       3.659  33.999 238.060  1.00 20.00    -0.055 C 
HETATM    7  C5  803  1161       3.316  32.620 238.427  1.00 20.00     0.004 C 
HETATM    8  C6  803  1161       2.821  31.752 237.537  1.00 20.00    -0.022 C 
HETATM    9  C7  803  1161       2.566  32.110 236.099  1.00 20.00     0.009 C 
HETATM   10  C20 803  1161       3.699  31.672 235.149  1.00 20.00     0.014 C 
HETATM   11  C8  803  1161       2.324  33.626 236.018  1.00 20.00     0.004 C 
HETATM   12  C9  803  1161       3.486  34.422 236.632  1.00 20.00     0.052 C 
ENDROOT
BRANCH  11  13
HETATM   13  C10 803  1161       2.126  34.066 234.564  1.00 20.00     0.009 C 
BRANCH  13  14
HETATM   14  C11 803  1161       0.879  33.373 233.989  1.00 20.00     0.033 C 
BRANCH  14  15
HETATM   15  C12 803  1161       0.105  34.454 233.229  1.00 20.00     0.134 C 
HETATM   16  O1  803  1161       1.050  35.056 232.325  1.00 20.00    -0.316 OA
HETATM   17  C22 803  1161       1.060  34.607 231.067  1.00 20.00     0.261 C 
HETATM   18  C15 803  1161       0.095  33.531 230.659  1.00 20.00     0.142 C 
HETATM   19  O2  803  1161       1.848  35.068 230.254  1.00 20.00    -0.265 OA
HETATM   20  C14 803  1161      -1.291  33.963 231.156  1.00 20.00     0.130 C 
HETATM   21  C13 803  1161      -1.206  33.848 232.682  1.00 20.00     0.065 C 
BRANCH  20  22
HETATM   22  O3  803  1161      -1.606  35.307 230.782  1.00 20.00    -0.395 OA
ATOM     23  H3  803  1161      -1.058  35.580 230.055  1.00  0.00     0.210 HD
ENDBRANCH  20  22
ENDBRANCH  14  15
ENDBRANCH  13  14
ENDBRANCH  11  13
BRANCH   1  24
HETATM   24  O4  803  1161       1.935  36.171 237.240  1.00 20.00    -0.315 OA
BRANCH  24  25
HETATM   25  C23 803  1161       1.149  37.028 236.582  1.00 20.00     0.263 C 
HETATM   26  O5  803  1161       1.568  37.800 235.733  1.00 20.00    -0.265 OA
BRANCH  25  27
HETATM   27  C16 803  1161      -0.300  36.954 236.979  1.00 20.00     0.081 C 
HETATM   28  C19 803  1161      -0.971  38.325 236.776  1.00 20.00     0.020 C 
BRANCH  27  29
HETATM   29  C17 803  1161      -1.022  35.880 236.155  1.00 20.00     0.010 C 
HETATM   30  C18 803  1161      -1.132  34.609 237.019  1.00 20.00     0.006 C 
ENDBRANCH  27  29
ENDBRANCH  25  27
ENDBRANCH  24  25
ENDBRANCH   1  24
TORSDOF 8
ENDMDL
MODEL 7
REMARK VINA RESULT:      -6.2      2.591      5.503
REMARK  8 active torsions:
REMARK  status: ('A' for Active; 'I' for Inactive)
REMARK    1  A    between atoms: C1_1  and  O4_24 
REMARK    2  A    between atoms: C10_13  and  C8_11 
REMARK    3  A    between atoms: C10_13  and  C11_14 
REMARK    4  A    between atoms: C11_14  and  C12_15 
REMARK    5  A    between atoms: C14_17  and  O3_18 
REMARK    6  A    between atoms: C23_25  and  O4_24 
REMARK    7  A    between atoms: C16_27  and  C23_25 
REMARK    8  A    between atoms: C16_27  and  C17_29 
ROOT
HETATM    1  C1  803  1161       1.691  34.775 235.329  1.00 20.00     0.141 C 
HETATM    2  C2  803  1161       3.046  35.485 235.570  1.00 20.00     0.041 C 
HETATM    3  C3  803  1161       3.956  34.678 236.526  1.00 20.00     0.007 C 
HETATM    4  C21 803  1161       3.758  35.114 237.994  1.00 20.00     0.014 C 
HETATM    5  C4  803  1161       3.765  33.182 236.429  1.00 20.00    -0.015 C 
HETATM    6  C24 803  1161       2.879  32.594 235.617  1.00 20.00    -0.055 C 
HETATM    7  C5  803  1161       2.760  31.131 235.591  1.00 20.00     0.004 C 
HETATM    8  C6  803  1161       1.866  30.506 234.816  1.00 20.00    -0.022 C 
HETATM    9  C7  803  1161       0.905  31.239 233.921  1.00 20.00     0.009 C 
HETATM   10  C20 803  1161       1.375  31.318 232.455  1.00 20.00     0.014 C 
HETATM   11  C8  803  1161       0.673  32.640 234.511  1.00 20.00     0.004 C 
HETATM   12  C9  803  1161       1.995  33.399 234.712  1.00 20.00     0.052 C 
ENDROOT
BRANCH  11  13
HETATM   13  C10 803  1161      -0.246  33.464 233.604  1.00 20.00     0.009 C 
BRANCH  13  14
HETATM   14  C11 803  1161      -1.712  33.118 233.918  1.00 20.00     0.033 C 
BRANCH  14  15
HETATM   15  C12 803  1161      -2.430  33.052 232.567  1.00 20.00     0.134 C 
HETATM   16  O1  803  1161      -3.837  33.135 232.862  1.00 20.00    -0.316 OA
HETATM   17  C22 803  1161      -4.409  34.338 232.764  1.00 20.00     0.261 C 
HETATM   18  C15 803  1161      -3.581  35.518 232.344  1.00 20.00     0.142 C 
HETATM   19  O2  803  1161      -5.598  34.477 233.014  1.00 20.00    -0.265 OA
HETATM   20  C14 803  1161      -2.803  35.094 231.092  1.00 20.00     0.130 C 
HETATM   21  C13 803  1161      -1.784  34.069 231.600  1.00 20.00     0.065 C 
BRANCH  20  22
HETATM   22  O3  803  1161      -3.649  34.498 230.104  1.00 20.00    -0.395 OA
ATOM     23  H3  803  1161      -4.309  35.121 229.821  1.00  0.00     0.210 HD
ENDBRANCH  20  22
ENDBRANCH  14  15
ENDBRANCH  13  14
ENDBRANCH  11  13
BRANCH   1  24
HETATM   24  O4  803  1161       1.005  34.577 236.574  1.00 20.00    -0.315 OA
BRANCH  24  25
HETATM   25  C23 803  1161      -0.143  35.258 236.627  1.00 20.00     0.263 C 
HETATM   26  O5  803  1161      -1.129  34.858 237.228  1.00 20.00    -0.265 OA
BRANCH  25  27
HETATM   27  C16 803  1161      -0.112  36.565 235.884  1.00 20.00     0.081 C 
HETATM   28  C19 803  1161      -1.396  36.727 235.049  1.00 20.00     0.020 C 
BRANCH  27  29
HETATM   29  C17 803  1161       0.034  37.733 236.870  1.00 20.00     0.010 C 
HETATM   30  C18 803  1161      -1.336  38.426 236.993  1.00 20.00     0.006 C 
ENDBRANCH  27  29
ENDBRANCH  25  27
ENDBRANCH  24  25
ENDBRANCH   1  24
TORSDOF 8
ENDMDL
MODEL 8
REMARK VINA RESULT:      -6.0      1.856      5.132
REMARK  8 active torsions:
REMARK  status: ('A' for Active; 'I' for Inactive)
REMARK    1  A    between atoms: C1_1  and  O4_24 
REMARK    2  A    between atoms: C10_13  and  C8_11 
REMARK    3  A    between atoms: C10_13  and  C11_14 
REMARK    4  A    between atoms: C11_14  and  C12_15 
REMARK    5  A    between atoms: C14_17  and  O3_18 
REMARK    6  A    between atoms: C23_25  and  O4_24 
REMARK    7  A    between atoms: C16_27  and  C23_25 
REMARK    8  A    between atoms: C16_27  and  C17_29 
ROOT
HETATM    1  C1  803  1161       3.269  32.420 235.286  1.00 20.00     0.141 C 
HETATM    2  C2  803  1161       4.526  31.519 235.342  1.00 20.00     0.041 C 
HETATM    3  C3  803  1161       4.283  30.245 236.187  1.00 20.00     0.007 C 
HETATM    4  C21 803  1161       4.687  30.462 237.661  1.00 20.00     0.014 C 
HETATM    5  C4  803  1161       2.857  29.746 236.137  1.00 20.00    -0.015 C 
HETATM    6  C24 803  1161       1.879  30.350 235.454  1.00 20.00    -0.055 C 
HETATM    7  C5  803  1161       0.520  29.794 235.465  1.00 20.00     0.004 C 
HETATM    8  C6  803  1161      -0.493  30.385 234.820  1.00 20.00    -0.022 C 
HETATM    9  C7  803  1161      -0.334  31.663 234.043  1.00 20.00     0.009 C 
HETATM   10  C20 803  1161      -0.157  31.440 232.528  1.00 20.00     0.014 C 
HETATM   11  C8  803  1161       0.853  32.441 234.636  1.00 20.00     0.004 C 
HETATM   12  C9  803  1161       2.135  31.594 234.657  1.00 20.00     0.052 C 
ENDROOT
BRANCH  11  13
HETATM   13  C10 803  1161       1.111  33.725 233.841  1.00 20.00     0.009 C 
BRANCH  13  14
HETATM   14  C11 803  1161      -0.215  34.481 233.655  1.00 20.00     0.033 C 
BRANCH  14  15
HETATM   15  C12 803  1161       0.107  35.962 233.873  1.00 20.00     0.134 C 
HETATM   16  O1  803  1161      -1.001  36.505 234.615  1.00 20.00    -0.316 OA
HETATM   17  C22 803  1161      -0.860  36.592 235.940  1.00 20.00     0.261 C 
HETATM   18  C15 803  1161       0.425  36.147 236.578  1.00 20.00     0.142 C 
HETATM   19  O2  803  1161      -1.770  37.032 236.629  1.00 20.00    -0.265 OA
HETATM   20  C14 803  1161       1.565  36.799 235.786  1.00 20.00     0.130 C 
HETATM   21  C13 803  1161       1.543  36.092 234.427  1.00 20.00     0.065 C 
BRANCH  20  22
HETATM   22  O3  803  1161       1.369  38.205 235.611  1.00 20.00    -0.395 OA
ATOM     23  H3  803  1161       1.010  38.585 236.405  1.00  0.00     0.210 HD
ENDBRANCH  20  22
ENDBRANCH  14  15
ENDBRANCH  13  14
ENDBRANCH  11  13
BRANCH   1  24
HETATM   24  O4  803  1161       2.874  32.806 236.611  1.00 20.00    -0.315 OA
BRANCH  24  25
HETATM   25  C23 803  1161       3.423  33.966 236.981  1.00 20.00     0.263 C 
HETATM   26  O5  803  1161       4.179  34.605 236.263  1.00 20.00    -0.265 OA
BRANCH  25  27
HETATM   27  C16 803  1161       3.025  34.417 238.359  1.00 20.00     0.081 C 
HETATM   28  C19 803  1161       2.695  33.196 239.237  1.00 20.00     0.020 C 
BRANCH  27  29
HETATM   29  C17 803  1161       4.154  35.240 238.995  1.00 20.00     0.010 C 
HETATM   30  C18 803  1161       3.755  36.727 238.929  1.00 20.00     0.006 C 
ENDBRANCH  27  29
ENDBRANCH  25  27
ENDBRANCH  24  25
ENDBRANCH   1  24
TORSDOF 8
ENDMDL
MODEL 9
REMARK VINA RESULT:      -6.0      2.461      5.162
REMARK  8 active torsions:
REMARK  status: ('A' for Active; 'I' for Inactive)
REMARK    1  A    between atoms: C1_1  and  O4_24 
REMARK    2  A    between atoms: C10_13  and  C8_11 
REMARK    3  A    between atoms: C10_13  and  C11_14 
REMARK    4  A    between atoms: C11_14  and  C12_15 
REMARK    5  A    between atoms: C14_17  and  O3_18 
REMARK    6  A    between atoms: C23_25  and  O4_24 
REMARK    7  A    between atoms: C16_27  and  C23_25 
REMARK    8  A    between atoms: C16_27  and  C17_29 
ROOT
HETATM    1  C1  803  1161       2.006  34.820 235.299  1.00 20.00     0.141 C 
HETATM    2  C2  803  1161       2.685  36.212 235.330  1.00 20.00     0.041 C 
HETATM    3  C3  803  1161       3.254  36.543 236.730  1.00 20.00     0.007 C 
HETATM    4  C21 803  1161       2.226  37.310 237.589  1.00 20.00     0.014 C 
HETATM    5  C4  803  1161       3.726  35.329 237.497  1.00 20.00    -0.015 C 
HETATM    6  C24 803  1161       3.644  34.077 237.035  1.00 20.00    -0.055 C 
HETATM    7  C5  803  1161       4.126  32.956 237.853  1.00 20.00     0.004 C 
HETATM    8  C6  803  1161       4.033  31.687 237.441  1.00 20.00    -0.022 C 
HETATM    9  C7  803  1161       3.424  31.297 236.123  1.00 20.00     0.009 C 
HETATM   10  C20 803  1161       4.467  31.056 235.013  1.00 20.00     0.014 C 
HETATM   11  C8  803  1161       2.418  32.388 235.717  1.00 20.00     0.004 C 
HETATM   12  C9  803  1161       3.071  33.778 235.682  1.00 20.00     0.052 C 
ENDROOT
BRANCH  11  13
HETATM   13  C10 803  1161       1.812  32.082 234.344  1.00 20.00     0.009 C 
BRANCH  13  14
HETATM   14  C11 803  1161       0.384  31.542 234.529  1.00 20.00     0.033 C 
BRANCH  14  15
HETATM   15  C12 803  1161      -0.016  30.932 233.183  1.00 20.00     0.134 C 
HETATM   16  O1  803  1161      -1.347  31.409 232.910  1.00 20.00    -0.316 OA
HETATM   17  C22 803  1161      -1.459  32.477 232.115  1.00 20.00     0.261 C 
HETATM   18  C15 803  1161      -0.221  33.104 231.542  1.00 20.00     0.142 C 
HETATM   19  O2  803  1161      -2.561  32.939 231.856  1.00 20.00    -0.265 OA
HETATM   20  C14 803  1161       0.619  31.968 230.945  1.00 20.00     0.130 C 
HETATM   21  C13 803  1161       1.115  31.176 232.159  1.00 20.00     0.065 C 
BRANCH  20  22
HETATM   22  O3  803  1161      -0.148  31.120 230.086  1.00 20.00    -0.395 OA
ATOM     23  H3  803  1161       0.430  30.623 229.517  1.00  0.00     0.210 HD
ENDBRANCH  20  22
ENDBRANCH  14  15
ENDBRANCH  13  14
ENDBRANCH  11  13
BRANCH   1  24
HETATM   24  O4  803  1161       0.944  34.764 236.262  1.00 20.00    -0.315 OA
BRANCH  24  25
HETATM   25  C23 803  1161      -0.223  35.159 235.746  1.00 20.00     0.263 C 
HETATM   26  O5  803  1161      -0.555  34.927 234.592  1.00 20.00    -0.265 OA
BRANCH  25  27
HETATM   27  C16 803  1161      -1.094  35.913 236.713  1.00 20.00     0.081 C 
HETATM   28  C19 803  1161      -1.247  37.375 236.253  1.00 20.00     0.020 C 
BRANCH  27  29
HETATM   29  C17 803  1161      -2.470  35.242 236.823  1.00 20.00     0.010 C 
HETATM   30  C18 803  1161      -2.331  34.019 237.749  1.00 20.00     0.006 C 
ENDBRANCH  27  29
ENDBRANCH  25  27
ENDBRANCH  24  25
ENDBRANCH   1  24
TORSDOF 8
ENDMDL
