MODEL 1
REMARK VINA RESULT:      -6.4      0.000      0.000
REMARK  13 active torsions:
REMARK  status: ('A' for Active; 'I' for Inactive)
REMARK    1  A    between atoms: C3_11  and  O3_3 
REMARK    2  A    between atoms: C5_13  and  O5_5 
REMARK    3  A    between atoms: C14_24  and  O14_7 
REMARK    4  A    between atoms: C18_27  and  O14_7 
REMARK    5  A    between atoms: C1_9  and  C2_10 
REMARK    6  A    between atoms: C2_10  and  C3_11 
REMARK    7  A    between atoms: C3_11  and  C4_12 
REMARK    8  A    between atoms: C4_12  and  C5_13 
REMARK    9  A    between atoms: C5_13  and  C6_14 
REMARK   10  A    between atoms: C6_14  and  C7_15 
REMARK   11  A    between atoms: C7_15  and  C8_16 
REMARK   12  A    between atoms: C18_27  and  C19_28 
REMARK   13  A    between atoms: C19_28  and  C20_29 
ROOT
HETATM    1  C8  SIM  6866       1.610  33.967 236.299  1.00 20.00     0.004 C 
HETATM    2  C9  SIM  6866       2.774  33.633 237.297  1.00 20.00     0.009 C 
HETATM    3  C10 SIM  6866       3.879  32.854 236.545  1.00 20.00    -0.022 C 
HETATM    4  C11 SIM  6866       3.644  32.063 235.464  1.00 20.00     0.004 C 
HETATM    5  C12 SIM  6866       2.396  31.893 234.946  1.00 20.00    -0.055 C 
HETATM    6  C17 SIM  6866       2.222  31.077 233.863  1.00 20.00    -0.015 C 
HETATM    7  C16 SIM  6866       0.865  30.789 233.181  1.00 20.00     0.007 C 
HETATM    8  C15 SIM  6866      -0.339  31.508 233.873  1.00 20.00     0.041 C 
HETATM    9  C14 SIM  6866       0.048  32.861 234.529  1.00 20.00     0.141 C 
HETATM   10  C13 SIM  6866       1.162  32.624 235.588  1.00 20.00     0.052 C 
HETATM   11  C9A SIM  6866       2.347  32.752 238.488  1.00 20.00     0.014 C 
HETATM   12  C24 SIM  6866       0.963  31.209 231.708  1.00 20.00     0.014 C 
ENDROOT
BRANCH   1  13
HETATM   13  C7  SIM  6866       0.435  34.771 236.963  1.00 20.00     0.009 C 
BRANCH  13  14
HETATM   14  C6  SIM  6866       0.573  36.314 236.831  1.00 20.00     0.032 C 
BRANCH  14  15
HETATM   15  C5  SIM  6866       1.810  36.812 236.047  1.00 20.00     0.120 C 
BRANCH  15  16
HETATM   16  C4  SIM  6866       2.687  37.726 236.901  1.00 20.00     0.064 C 
BRANCH  16  17
HETATM   17  C3  SIM  6866       3.884  37.048 237.549  1.00 20.00     0.130 C 
BRANCH  17  18
HETATM   18  C2  SIM  6866       3.692  36.880 239.061  1.00 20.00     0.144 C 
BRANCH  18  19
HETATM   19  C1  SIM  6866       4.774  36.046 239.723  1.00 20.00     0.175 C 
HETATM   20  O1A SIM  6866       4.259  35.004 240.440  1.00 20.00    -0.648 OA
HETATM   21  O1B SIM  6866       5.976  36.277 239.630  1.00 20.00    -0.648 OA
ENDBRANCH  18  19
ENDBRANCH  17  18
BRANCH  17  22
HETATM   22  O3  SIM  6866       5.013  37.876 237.313  1.00 20.00    -0.395 OA
ATOM     23  H3  SIM  6866       5.156  38.431 238.071  1.00  0.00     0.210 HD
ENDBRANCH  17  22
ENDBRANCH  16  17
ENDBRANCH  15  16
BRANCH  15  24
HETATM   24  O5  SIM  6866       1.375  37.571 234.929  1.00 20.00    -0.395 OA
ATOM     25  H5  SIM  6866       0.860  36.992 234.379  1.00  0.00     0.210 HD
ENDBRANCH  15  24
ENDBRANCH  14  15
ENDBRANCH  13  14
ENDBRANCH   1  13
BRANCH   9  26
HETATM   26  O14 SIM  6866       0.574  33.792 233.522  1.00 20.00    -0.315 OA
BRANCH  26  27
HETATM   27  C18 SIM  6866      -0.203  34.857 233.070  1.00 20.00     0.267 C 
HETATM   28  O18 SIM  6866      -0.749  35.688 233.807  1.00 20.00    -0.264 OA
BRANCH  27  29
HETATM   29  C19 SIM  6866      -0.313  34.899 231.495  1.00 20.00     0.040 C 
HETATM   30  C22 SIM  6866       1.095  34.798 230.829  1.00 20.00     0.025 C 
HETATM   31  C23 SIM  6866      -0.916  36.240 230.977  1.00 20.00     0.025 C 
BRANCH  29  32
HETATM   32  C20 SIM  6866      -1.207  33.735 230.964  1.00 20.00     0.014 C 
HETATM   33  C21 SIM  6866      -2.585  33.535 231.619  1.00 20.00     0.006 C 
ENDBRANCH  29  32
ENDBRANCH  27  29
ENDBRANCH  26  27
ENDBRANCH   9  26
TORSDOF 13
ENDMDL
MODEL 2
REMARK VINA RESULT:      -6.0      2.082      3.757
REMARK  13 active torsions:
REMARK  status: ('A' for Active; 'I' for Inactive)
REMARK    1  A    between atoms: C3_11  and  O3_3 
REMARK    2  A    between atoms: C5_13  and  O5_5 
REMARK    3  A    between atoms: C14_24  and  O14_7 
REMARK    4  A    between atoms: C18_27  and  O14_7 
REMARK    5  A    between atoms: C1_9  and  C2_10 
REMARK    6  A    between atoms: C2_10  and  C3_11 
REMARK    7  A    between atoms: C3_11  and  C4_12 
REMARK    8  A    between atoms: C4_12  and  C5_13 
REMARK    9  A    between atoms: C5_13  and  C6_14 
REMARK   10  A    between atoms: C6_14  and  C7_15 
REMARK   11  A    between atoms: C7_15  and  C8_16 
REMARK   12  A    between atoms: C18_27  and  C19_28 
REMARK   13  A    between atoms: C19_28  and  C20_29 
ROOT
HETATM    1  C8  SIM  6866      -1.423  34.534 235.688  1.00 20.00     0.004 C 
HETATM    2  C9  SIM  6866      -1.548  33.664 236.987  1.00 20.00     0.009 C 
HETATM    3  C10 SIM  6866      -2.102  32.269 236.613  1.00 20.00    -0.022 C 
HETATM    4  C11 SIM  6866      -2.911  32.039 235.545  1.00 20.00     0.004 C 
HETATM    5  C12 SIM  6866      -3.303  33.035 234.702  1.00 20.00    -0.055 C 
HETATM    6  C17 SIM  6866      -4.125  32.743 233.649  1.00 20.00    -0.015 C 
HETATM    7  C16 SIM  6866      -4.650  33.774 232.625  1.00 20.00     0.007 C 
HETATM    8  C15 SIM  6866      -4.172  35.234 232.916  1.00 20.00     0.041 C 
HETATM    9  C14 SIM  6866      -2.778  35.300 233.597  1.00 20.00     0.141 C 
HETATM   10  C13 SIM  6866      -2.818  34.511 234.937  1.00 20.00     0.052 C 
HETATM   11  C9A SIM  6866      -2.506  34.248 238.046  1.00 20.00     0.014 C 
HETATM   12  C24 SIM  6866      -4.204  33.336 231.223  1.00 20.00     0.014 C 
ENDROOT
BRANCH   1  13
HETATM   13  C7  SIM  6866      -0.856  35.974 235.957  1.00 20.00     0.009 C 
BRANCH  13  14
HETATM   14  C6  SIM  6866       0.532  35.984 236.658  1.00 20.00     0.032 C 
BRANCH  14  15
HETATM   15  C5  SIM  6866       1.415  37.223 236.378  1.00 20.00     0.120 C 
BRANCH  15  16
HETATM   16  C4  SIM  6866       2.354  37.519 237.547  1.00 20.00     0.064 C 
BRANCH  16  17
HETATM   17  C3  SIM  6866       3.721  36.859 237.457  1.00 20.00     0.130 C 
BRANCH  17  18
HETATM   18  C2  SIM  6866       4.054  36.064 238.725  1.00 20.00     0.144 C 
BRANCH  18  19
HETATM   19  C1  SIM  6866       3.475  34.662 238.734  1.00 20.00     0.175 C 
HETATM   20  O1A SIM  6866       3.444  34.106 237.487  1.00 20.00    -0.648 OA
HETATM   21  O1B SIM  6866       3.076  34.087 239.742  1.00 20.00    -0.648 OA
ENDBRANCH  18  19
ENDBRANCH  17  18
BRANCH  17  22
HETATM   22  O3  SIM  6866       4.677  37.896 237.294  1.00 20.00    -0.395 OA
ATOM     23  H3  SIM  6866       4.618  38.238 236.410  1.00  0.00     0.210 HD
ENDBRANCH  17  22
ENDBRANCH  16  17
ENDBRANCH  15  16
BRANCH  15  24
HETATM   24  O5  SIM  6866       0.580  38.358 236.212  1.00 20.00    -0.395 OA
ATOM     25  H5  SIM  6866      -0.112  38.297 236.860  1.00  0.00     0.210 HD
ENDBRANCH  15  24
ENDBRANCH  14  15
ENDBRANCH  13  14
ENDBRANCH   1  13
BRANCH   9  26
HETATM   26  O14 SIM  6866      -1.756  34.683 232.741  1.00 20.00    -0.315 OA
BRANCH  26  27
HETATM   27  C18 SIM  6866      -0.822  35.474 232.075  1.00 20.00     0.267 C 
HETATM   28  O18 SIM  6866      -1.081  36.552 231.525  1.00 20.00    -0.264 OA
BRANCH  27  29
HETATM   29  C19 SIM  6866       0.628  34.847 232.099  1.00 20.00     0.040 C 
HETATM   30  C22 SIM  6866       1.557  35.612 233.092  1.00 20.00     0.025 C 
HETATM   31  C23 SIM  6866       1.339  34.942 230.715  1.00 20.00     0.025 C 
BRANCH  29  32
HETATM   32  C20 SIM  6866       0.580  33.342 232.511  1.00 20.00     0.014 C 
HETATM   33  C21 SIM  6866       1.221  32.946 233.853  1.00 20.00     0.006 C 
ENDBRANCH  29  32
ENDBRANCH  27  29
ENDBRANCH  26  27
ENDBRANCH   9  26
TORSDOF 13
ENDMDL
MODEL 3
REMARK VINA RESULT:      -5.9      1.719      4.643
REMARK  13 active torsions:
REMARK  status: ('A' for Active; 'I' for Inactive)
REMARK    1  A    between atoms: C3_11  and  O3_3 
REMARK    2  A    between atoms: C5_13  and  O5_5 
REMARK    3  A    between atoms: C14_24  and  O14_7 
REMARK    4  A    between atoms: C18_27  and  O14_7 
REMARK    5  A    between atoms: C1_9  and  C2_10 
REMARK    6  A    between atoms: C2_10  and  C3_11 
REMARK    7  A    between atoms: C3_11  and  C4_12 
REMARK    8  A    between atoms: C4_12  and  C5_13 
REMARK    9  A    between atoms: C5_13  and  C6_14 
REMARK   10  A    between atoms: C6_14  and  C7_15 
REMARK   11  A    between atoms: C7_15  and  C8_16 
REMARK   12  A    between atoms: C18_27  and  C19_28 
REMARK   13  A    between atoms: C19_28  and  C20_29 
ROOT
HETATM    1  C8  SIM  6866      -1.891  34.732 234.130  1.00 20.00     0.004 C 
HETATM    2  C9  SIM  6866      -3.449  34.584 234.012  1.00 20.00     0.009 C 
HETATM    3  C10 SIM  6866      -3.805  33.090 233.832  1.00 20.00    -0.022 C 
HETATM    4  C11 SIM  6866      -2.977  32.180 233.254  1.00 20.00     0.004 C 
HETATM    5  C12 SIM  6866      -1.745  32.516 232.780  1.00 20.00    -0.055 C 
HETATM    6  C17 SIM  6866      -0.961  31.557 232.201  1.00 20.00    -0.015 C 
HETATM    7  C16 SIM  6866       0.449  31.802 231.617  1.00 20.00     0.007 C 
HETATM    8  C15 SIM  6866       0.911  33.292 231.720  1.00 20.00     0.041 C 
HETATM    9  C14 SIM  6866       0.327  34.032 232.954  1.00 20.00     0.141 C 
HETATM   10  C13 SIM  6866      -1.226  33.995 232.895  1.00 20.00     0.052 C 
HETATM   11  C9A SIM  6866      -4.062  35.330 232.808  1.00 20.00     0.014 C 
HETATM   12  C24 SIM  6866       1.441  30.884 232.343  1.00 20.00     0.014 C 
ENDROOT
BRANCH   1  13
HETATM   13  C7  SIM  6866      -1.422  36.218 234.326  1.00 20.00     0.009 C 
BRANCH  13  14
HETATM   14  C6  SIM  6866      -1.220  36.624 235.813  1.00 20.00     0.032 C 
BRANCH  14  15
HETATM   15  C5  SIM  6866      -0.416  37.925 236.050  1.00 20.00     0.120 C 
BRANCH  15  16
HETATM   16  C4  SIM  6866       0.523  37.795 237.247  1.00 20.00     0.064 C 
BRANCH  16  17
HETATM   17  C3  SIM  6866       1.874  37.168 236.940  1.00 20.00     0.130 C 
BRANCH  17  18
HETATM   18  C2  SIM  6866       2.949  37.615 237.938  1.00 20.00     0.144 C 
BRANCH  18  19
HETATM   19  C1  SIM  6866       4.259  36.862 237.800  1.00 20.00     0.175 C 
HETATM   20  O1A SIM  6866       4.961  36.824 238.972  1.00 20.00    -0.648 OA
HETATM   21  O1B SIM  6866       4.651  36.345 236.759  1.00 20.00    -0.648 OA
ENDBRANCH  18  19
ENDBRANCH  17  18
BRANCH  17  22
HETATM   22  O3  SIM  6866       2.246  37.591 235.637  1.00 20.00    -0.395 OA
ATOM     23  H3  SIM  6866       2.235  36.842 235.052  1.00  0.00     0.210 HD
ENDBRANCH  17  22
ENDBRANCH  16  17
ENDBRANCH  15  16
BRANCH  15  24
HETATM   24  O5  SIM  6866      -1.320  38.981 236.337  1.00 20.00    -0.395 OA
ATOM     25  H5  SIM  6866      -2.040  38.911 235.721  1.00  0.00     0.210 HD
ENDBRANCH  15  24
ENDBRANCH  14  15
ENDBRANCH  13  14
ENDBRANCH   1  13
BRANCH   9  26
HETATM   26  O14 SIM  6866       0.747  33.372 234.197  1.00 20.00    -0.315 OA
BRANCH  26  27
HETATM   27  C18 SIM  6866       1.900  33.788 234.863  1.00 20.00     0.267 C 
HETATM   28  O18 SIM  6866       2.412  34.908 234.745  1.00 20.00    -0.264 OA
BRANCH  27  29
HETATM   29  C19 SIM  6866       2.491  32.665 235.804  1.00 20.00     0.040 C 
HETATM   30  C22 SIM  6866       3.661  31.904 235.108  1.00 20.00     0.025 C 
HETATM   31  C23 SIM  6866       1.439  31.569 236.155  1.00 20.00     0.025 C 
BRANCH  29  32
HETATM   32  C20 SIM  6866       3.013  33.275 237.143  1.00 20.00     0.014 C 
HETATM   33  C21 SIM  6866       1.970  33.667 238.205  1.00 20.00     0.006 C 
ENDBRANCH  29  32
ENDBRANCH  27  29
ENDBRANCH  26  27
ENDBRANCH   9  26
TORSDOF 13
ENDMDL
MODEL 4
REMARK VINA RESULT:      -5.9      1.352      1.999
REMARK  13 active torsions:
REMARK  status: ('A' for Active; 'I' for Inactive)
REMARK    1  A    between atoms: C3_11  and  O3_3 
REMARK    2  A    between atoms: C5_13  and  O5_5 
REMARK    3  A    between atoms: C14_24  and  O14_7 
REMARK    4  A    between atoms: C18_27  and  O14_7 
REMARK    5  A    between atoms: C1_9  and  C2_10 
REMARK    6  A    between atoms: C2_10  and  C3_11 
REMARK    7  A    between atoms: C3_11  and  C4_12 
REMARK    8  A    between atoms: C4_12  and  C5_13 
REMARK    9  A    between atoms: C5_13  and  C6_14 
REMARK   10  A    between atoms: C6_14  and  C7_15 
REMARK   11  A    between atoms: C7_15  and  C8_16 
REMARK   12  A    between atoms: C18_27  and  C19_28 
REMARK   13  A    between atoms: C19_28  and  C20_29 
ROOT
HETATM    1  C8  SIM  6866       1.798  33.709 235.296  1.00 20.00     0.004 C 
HETATM    2  C9  SIM  6866       3.305  33.435 235.638  1.00 20.00     0.009 C 
HETATM    3  C10 SIM  6866       3.700  32.038 235.104  1.00 20.00    -0.022 C 
HETATM    4  C11 SIM  6866       2.824  31.008 234.959  1.00 20.00     0.004 C 
HETATM    5  C12 SIM  6866       1.504  31.127 235.275  1.00 20.00    -0.055 C 
HETATM    6  C17 SIM  6866       0.674  30.053 235.116  1.00 20.00    -0.015 C 
HETATM    7  C16 SIM  6866      -0.837  30.048 235.442  1.00 20.00     0.007 C 
HETATM    8  C15 SIM  6866      -1.351  31.408 236.016  1.00 20.00     0.041 C 
HETATM    9  C14 SIM  6866      -0.571  32.637 235.475  1.00 20.00     0.141 C 
HETATM   10  C13 SIM  6866       0.937  32.487 235.822  1.00 20.00     0.052 C 
HETATM   11  C9A SIM  6866       3.617  33.432 237.149  1.00 20.00     0.014 C 
HETATM   12  C24 SIM  6866      -1.608  29.681 234.166  1.00 20.00     0.014 C 
ENDROOT
BRANCH   1  13
HETATM   13  C7  SIM  6866       1.296  35.113 235.789  1.00 20.00     0.009 C 
BRANCH  13  14
HETATM   14  C6  SIM  6866       2.129  36.308 235.242  1.00 20.00     0.032 C 
BRANCH  14  15
HETATM   15  C5  SIM  6866       2.137  37.579 236.124  1.00 20.00     0.120 C 
BRANCH  15  16
HETATM   16  C4  SIM  6866       2.411  37.245 237.589  1.00 20.00     0.064 C 
BRANCH  16  17
HETATM   17  C3  SIM  6866       3.866  36.958 237.923  1.00 20.00     0.130 C 
BRANCH  17  18
HETATM   18  C2  SIM  6866       4.133  37.047 239.430  1.00 20.00     0.144 C 
BRANCH  18  19
HETATM   19  C1  SIM  6866       4.766  35.796 240.011  1.00 20.00     0.175 C 
HETATM   20  O1A SIM  6866       6.116  35.926 240.172  1.00 20.00    -0.648 OA
HETATM   21  O1B SIM  6866       4.143  34.780 240.303  1.00 20.00    -0.648 OA
ENDBRANCH  18  19
ENDBRANCH  17  18
BRANCH  17  22
HETATM   22  O3  SIM  6866       4.650  37.935 237.255  1.00 20.00    -0.395 OA
ATOM     23  H3  SIM  6866       5.560  37.660 237.259  1.00  0.00     0.210 HD
ENDBRANCH  17  22
ENDBRANCH  16  17
ENDBRANCH  15  16
BRANCH  15  24
HETATM   24  O5  SIM  6866       0.858  38.192 236.064  1.00 20.00    -0.395 OA
ATOM     25  H5  SIM  6866       0.876  38.938 236.652  1.00  0.00     0.210 HD
ENDBRANCH  15  24
ENDBRANCH  14  15
ENDBRANCH  13  14
ENDBRANCH   1  13
BRANCH   9  26
HETATM   26  O14 SIM  6866      -0.691  32.722 234.014  1.00 20.00    -0.315 OA
BRANCH  26  27
HETATM   27  C18 SIM  6866      -1.615  33.588 233.431  1.00 20.00     0.267 C 
HETATM   28  O18 SIM  6866      -2.796  33.694 233.785  1.00 20.00    -0.264 OA
BRANCH  27  29
HETATM   29  C19 SIM  6866      -0.988  34.439 232.257  1.00 20.00     0.040 C 
HETATM   30  C22 SIM  6866      -0.952  35.956 232.617  1.00 20.00     0.025 C 
HETATM   31  C23 SIM  6866      -1.826  34.349 230.945  1.00 20.00     0.025 C 
BRANCH  29  32
HETATM   32  C20 SIM  6866       0.463  33.962 231.932  1.00 20.00     0.014 C 
HETATM   33  C21 SIM  6866       1.508  35.037 231.586  1.00 20.00     0.006 C 
ENDBRANCH  29  32
ENDBRANCH  27  29
ENDBRANCH  26  27
ENDBRANCH   9  26
TORSDOF 13
ENDMDL
MODEL 5
REMARK VINA RESULT:      -5.8      2.765      6.926
REMARK  13 active torsions:
REMARK  status: ('A' for Active; 'I' for Inactive)
REMARK    1  A    between atoms: C3_11  and  O3_3 
REMARK    2  A    between atoms: C5_13  and  O5_5 
REMARK    3  A    between atoms: C14_24  and  O14_7 
REMARK    4  A    between atoms: C18_27  and  O14_7 
REMARK    5  A    between atoms: C1_9  and  C2_10 
REMARK    6  A    between atoms: C2_10  and  C3_11 
REMARK    7  A    between atoms: C3_11  and  C4_12 
REMARK    8  A    between atoms: C4_12  and  C5_13 
REMARK    9  A    between atoms: C5_13  and  C6_14 
REMARK   10  A    between atoms: C6_14  and  C7_15 
REMARK   11  A    between atoms: C7_15  and  C8_16 
REMARK   12  A    between atoms: C18_27  and  C19_28 
REMARK   13  A    between atoms: C19_28  and  C20_29 
ROOT
HETATM    1  C8  SIM  6866       0.908  33.412 234.173  1.00 20.00     0.004 C 
HETATM    2  C9  SIM  6866       0.546  31.914 233.883  1.00 20.00     0.009 C 
HETATM    3  C10 SIM  6866       0.515  31.132 235.217  1.00 20.00    -0.022 C 
HETATM    4  C11 SIM  6866       1.255  31.466 236.307  1.00 20.00     0.004 C 
HETATM    5  C12 SIM  6866       2.095  32.539 236.313  1.00 20.00    -0.055 C 
HETATM    6  C17 SIM  6866       2.820  32.820 237.438  1.00 20.00    -0.015 C 
HETATM    7  C16 SIM  6866       3.813  33.996 237.578  1.00 20.00     0.007 C 
HETATM    8  C15 SIM  6866       3.948  34.851 236.276  1.00 20.00     0.041 C 
HETATM    9  C14 SIM  6866       2.645  34.893 235.431  1.00 20.00     0.141 C 
HETATM   10  C13 SIM  6866       2.236  33.446 235.037  1.00 20.00     0.052 C 
HETATM   11  C9A SIM  6866       1.556  31.188 232.971  1.00 20.00     0.014 C 
HETATM   12  C24 SIM  6866       3.359  34.877 238.750  1.00 20.00     0.014 C 
ENDROOT
BRANCH   1  13
HETATM   13  C7  SIM  6866       0.956  34.301 232.879  1.00 20.00     0.009 C 
BRANCH  13  14
HETATM   14  C6  SIM  6866      -0.367  34.297 232.062  1.00 20.00     0.032 C 
BRANCH  14  15
HETATM   15  C5  SIM  6866      -0.218  34.556 230.543  1.00 20.00     0.120 C 
BRANCH  15  16
HETATM   16  C4  SIM  6866       1.213  34.309 230.068  1.00 20.00     0.064 C 
BRANCH  16  17
HETATM   17  C3  SIM  6866       1.355  34.008 228.585  1.00 20.00     0.130 C 
BRANCH  17  18
HETATM   18  C2  SIM  6866       2.404  34.908 227.920  1.00 20.00     0.144 C 
BRANCH  18  19
HETATM   19  C1  SIM  6866       1.835  36.205 227.375  1.00 20.00     0.175 C 
HETATM   20  O1A SIM  6866       2.318  36.499 226.131  1.00 20.00    -0.648 OA
HETATM   21  O1B SIM  6866       1.036  36.914 227.976  1.00 20.00    -0.648 OA
ENDBRANCH  18  19
ENDBRANCH  17  18
BRANCH  17  22
HETATM   22  O3  SIM  6866       0.091  34.246 227.984  1.00 20.00    -0.395 OA
ATOM     23  H3  SIM  6866       0.220  34.681 227.150  1.00  0.00     0.210 HD
ENDBRANCH  17  22
ENDBRANCH  16  17
ENDBRANCH  15  16
BRANCH  15  24
HETATM   24  O5  SIM  6866      -0.522  35.916 230.274  1.00 20.00    -0.395 OA
ATOM     25  H5  SIM  6866      -0.926  35.949 229.415  1.00  0.00     0.210 HD
ENDBRANCH  15  24
ENDBRANCH  14  15
ENDBRANCH  13  14
ENDBRANCH   1  13
BRANCH   9  26
HETATM   26  O14 SIM  6866       1.545  35.478 236.209  1.00 20.00    -0.315 OA
BRANCH  26  27
HETATM   27  C18 SIM  6866       0.964  36.682 235.814  1.00 20.00     0.267 C 
HETATM   28  O18 SIM  6866       1.592  37.654 235.377  1.00 20.00    -0.264 OA
BRANCH  27  29
HETATM   29  C19 SIM  6866      -0.608  36.676 235.977  1.00 20.00     0.040 C 
HETATM   30  C22 SIM  6866      -1.319  36.699 234.589  1.00 20.00     0.025 C 
HETATM   31  C23 SIM  6866      -1.132  37.937 236.728  1.00 20.00     0.025 C 
BRANCH  29  32
HETATM   32  C20 SIM  6866      -1.084  35.416 236.766  1.00 20.00     0.014 C 
HETATM   33  C21 SIM  6866      -2.045  34.446 236.054  1.00 20.00     0.006 C 
ENDBRANCH  29  32
ENDBRANCH  27  29
ENDBRANCH  26  27
ENDBRANCH   9  26
TORSDOF 13
ENDMDL
MODEL 6
REMARK VINA RESULT:      -5.7      2.404      6.798
REMARK  13 active torsions:
REMARK  status: ('A' for Active; 'I' for Inactive)
REMARK    1  A    between atoms: C3_11  and  O3_3 
REMARK    2  A    between atoms: C5_13  and  O5_5 
REMARK    3  A    between atoms: C14_24  and  O14_7 
REMARK    4  A    between atoms: C18_27  and  O14_7 
REMARK    5  A    between atoms: C1_9  and  C2_10 
REMARK    6  A    between atoms: C2_10  and  C3_11 
REMARK    7  A    between atoms: C3_11  and  C4_12 
REMARK    8  A    between atoms: C4_12  and  C5_13 
REMARK    9  A    between atoms: C5_13  and  C6_14 
REMARK   10  A    between atoms: C6_14  and  C7_15 
REMARK   11  A    between atoms: C7_15  and  C8_16 
REMARK   12  A    between atoms: C18_27  and  C19_28 
REMARK   13  A    between atoms: C19_28  and  C20_29 
ROOT
HETATM    1  C8  SIM  6866       0.936  33.296 233.952  1.00 20.00     0.004 C 
HETATM    2  C9  SIM  6866       0.541  31.822 233.586  1.00 20.00     0.009 C 
HETATM    3  C10 SIM  6866       0.389  30.999 234.887  1.00 20.00    -0.022 C 
HETATM    4  C11 SIM  6866       1.062  31.271 236.036  1.00 20.00     0.004 C 
HETATM    5  C12 SIM  6866       1.938  32.310 236.137  1.00 20.00    -0.055 C 
HETATM    6  C17 SIM  6866       2.592  32.528 237.318  1.00 20.00    -0.015 C 
HETATM    7  C16 SIM  6866       3.613  33.661 237.567  1.00 20.00     0.007 C 
HETATM    8  C15 SIM  6866       3.870  34.550 236.307  1.00 20.00     0.041 C 
HETATM    9  C14 SIM  6866       2.632  34.669 235.376  1.00 20.00     0.141 C 
HETATM   10  C13 SIM  6866       2.200  33.251 234.906  1.00 20.00     0.052 C 
HETATM   11  C9A SIM  6866       1.587  31.087 232.721  1.00 20.00     0.014 C 
HETATM   12  C24 SIM  6866       3.110  34.521 238.734  1.00 20.00     0.014 C 
ENDROOT
BRANCH   1  13
HETATM   13  C7  SIM  6866       1.106  34.222 232.695  1.00 20.00     0.009 C 
BRANCH  13  14
HETATM   14  C6  SIM  6866      -0.079  34.148 231.691  1.00 20.00     0.032 C 
BRANCH  14  15
HETATM   15  C5  SIM  6866      -0.277  35.393 230.794  1.00 20.00     0.120 C 
BRANCH  15  16
HETATM   16  C4  SIM  6866      -1.644  35.382 230.111  1.00 20.00     0.064 C 
BRANCH  16  17
HETATM   17  C3  SIM  6866      -2.383  36.711 230.128  1.00 20.00     0.130 C 
BRANCH  17  18
HETATM   18  C2  SIM  6866      -2.247  37.455 228.795  1.00 20.00     0.144 C 
BRANCH  18  19
HETATM   19  C1  SIM  6866      -1.087  38.433 228.758  1.00 20.00     0.175 C 
HETATM   20  O1A SIM  6866       0.029  37.892 228.185  1.00 20.00    -0.648 OA
HETATM   21  O1B SIM  6866      -1.138  39.579 229.193  1.00 20.00    -0.648 OA
ENDBRANCH  18  19
ENDBRANCH  17  18
BRANCH  17  22
HETATM   22  O3  SIM  6866      -1.807  37.498 231.160  1.00 20.00    -0.395 OA
ATOM     23  H3  SIM  6866      -1.932  38.417 230.957  1.00  0.00     0.210 HD
ENDBRANCH  17  22
ENDBRANCH  16  17
ENDBRANCH  15  16
BRANCH  15  24
HETATM   24  O5  SIM  6866       0.705  35.385 229.770  1.00 20.00    -0.395 OA
ATOM     25  H5  SIM  6866       1.554  35.334 230.194  1.00  0.00     0.210 HD
ENDBRANCH  15  24
ENDBRANCH  14  15
ENDBRANCH  13  14
ENDBRANCH   1  13
BRANCH   9  26
HETATM   26  O14 SIM  6866       1.502  35.270 236.096  1.00 20.00    -0.315 OA
BRANCH  26  27
HETATM   27  C18 SIM  6866       0.962  36.484 235.674  1.00 20.00     0.267 C 
HETATM   28  O18 SIM  6866       1.619  37.411 235.184  1.00 20.00    -0.264 OA
BRANCH  27  29
HETATM   29  C19 SIM  6866      -0.603  36.554 235.882  1.00 20.00     0.040 C 
HETATM   30  C22 SIM  6866      -1.354  36.548 234.515  1.00 20.00     0.025 C 
HETATM   31  C23 SIM  6866      -1.050  37.869 236.591  1.00 20.00     0.025 C 
BRANCH  29  32
HETATM   32  C20 SIM  6866      -1.108  35.351 236.740  1.00 20.00     0.014 C 
HETATM   33  C21 SIM  6866      -1.886  34.235 236.019  1.00 20.00     0.006 C 
ENDBRANCH  29  32
ENDBRANCH  27  29
ENDBRANCH  26  27
ENDBRANCH   9  26
TORSDOF 13
ENDMDL
MODEL 7
REMARK VINA RESULT:      -5.6      3.135      6.767
REMARK  13 active torsions:
REMARK  status: ('A' for Active; 'I' for Inactive)
REMARK    1  A    between atoms: C3_11  and  O3_3 
REMARK    2  A    between atoms: C5_13  and  O5_5 
REMARK    3  A    between atoms: C14_24  and  O14_7 
REMARK    4  A    between atoms: C18_27  and  O14_7 
REMARK    5  A    between atoms: C1_9  and  C2_10 
REMARK    6  A    between atoms: C2_10  and  C3_11 
REMARK    7  A    between atoms: C3_11  and  C4_12 
REMARK    8  A    between atoms: C4_12  and  C5_13 
REMARK    9  A    between atoms: C5_13  and  C6_14 
REMARK   10  A    between atoms: C6_14  and  C7_15 
REMARK   11  A    between atoms: C7_15  and  C8_16 
REMARK   12  A    between atoms: C18_27  and  C19_28 
REMARK   13  A    between atoms: C19_28  and  C20_29 
ROOT
HETATM    1  C8  SIM  6866       0.338  35.066 234.754  1.00 20.00     0.004 C 
HETATM    2  C9  SIM  6866       0.572  36.474 235.404  1.00 20.00     0.009 C 
HETATM    3  C10 SIM  6866       2.092  36.713 235.564  1.00 20.00    -0.022 C 
HETATM    4  C11 SIM  6866       3.001  35.715 235.727  1.00 20.00     0.004 C 
HETATM    5  C12 SIM  6866       2.640  34.401 235.759  1.00 20.00    -0.055 C 
HETATM    6  C17 SIM  6866       3.599  33.443 235.935  1.00 20.00    -0.015 C 
HETATM    7  C16 SIM  6866       3.328  31.923 235.999  1.00 20.00     0.007 C 
HETATM    8  C15 SIM  6866       1.813  31.558 235.873  1.00 20.00     0.041 C 
HETATM    9  C14 SIM  6866       1.012  32.560 234.997  1.00 20.00     0.141 C 
HETATM   10  C13 SIM  6866       1.132  33.987 235.601  1.00 20.00     0.052 C 
HETATM   11  C9A SIM  6866      -0.048  36.630 236.808  1.00 20.00     0.014 C 
HETATM   12  C24 SIM  6866       4.137  31.238 234.889  1.00 20.00     0.014 C 
ENDROOT
BRANCH   1  13
HETATM   13  C7  SIM  6866      -1.181  34.728 234.537  1.00 20.00     0.009 C 
BRANCH  13  14
HETATM   14  C6  SIM  6866      -2.007  35.898 233.932  1.00 20.00     0.032 C 
BRANCH  14  15
HETATM   15  C5  SIM  6866      -2.610  35.638 232.531  1.00 20.00     0.120 C 
BRANCH  15  16
HETATM   16  C4  SIM  6866      -2.059  36.613 231.492  1.00 20.00     0.064 C 
BRANCH  16  17
HETATM   17  C3  SIM  6866      -2.084  36.109 230.058  1.00 20.00     0.130 C 
BRANCH  17  18
HETATM   18  C2  SIM  6866      -2.007  37.260 229.048  1.00 20.00     0.144 C 
BRANCH  18  19
HETATM   19  C1  SIM  6866      -3.291  37.472 228.267  1.00 20.00     0.175 C 
HETATM   20  O1A SIM  6866      -3.364  36.669 227.164  1.00 20.00    -0.648 OA
HETATM   21  O1B SIM  6866      -4.166  38.271 228.583  1.00 20.00    -0.648 OA
ENDBRANCH  18  19
ENDBRANCH  17  18
BRANCH  17  22
HETATM   22  O3  SIM  6866      -3.309  35.415 229.879  1.00 20.00    -0.395 OA
ATOM     23  H3  SIM  6866      -3.298  34.977 229.036  1.00  0.00     0.210 HD
ENDBRANCH  17  22
ENDBRANCH  16  17
ENDBRANCH  15  16
BRANCH  15  24
HETATM   24  O5  SIM  6866      -4.015  35.834 232.588  1.00 20.00    -0.395 OA
ATOM     25  H5  SIM  6866      -4.264  35.822 233.505  1.00  0.00     0.210 HD
ENDBRANCH  15  24
ENDBRANCH  14  15
ENDBRANCH  13  14
ENDBRANCH   1  13
BRANCH   9  26
HETATM   26  O14 SIM  6866       1.553  32.600 233.632  1.00 20.00    -0.315 OA
BRANCH  26  27
HETATM   27  C18 SIM  6866       1.046  31.754 232.647  1.00 20.00     0.267 C 
HETATM   28  O18 SIM  6866       1.134  30.520 232.669  1.00 20.00    -0.264 OA
BRANCH  27  29
HETATM   29  C19 SIM  6866       0.330  32.545 231.482  1.00 20.00     0.040 C 
HETATM   30  C22 SIM  6866      -1.221  32.513 231.649  1.00 20.00     0.025 C 
HETATM   31  C23 SIM  6866       0.605  31.918 230.081  1.00 20.00     0.025 C 
BRANCH  29  32
HETATM   32  C20 SIM  6866       0.802  34.033 231.442  1.00 20.00     0.014 C 
HETATM   33  C21 SIM  6866       1.323  34.582 230.101  1.00 20.00     0.006 C 
ENDBRANCH  29  32
ENDBRANCH  27  29
ENDBRANCH  26  27
ENDBRANCH   9  26
TORSDOF 13
ENDMDL
MODEL 8
REMARK VINA RESULT:      -5.6      2.475      6.418
REMARK  13 active torsions:
REMARK  status: ('A' for Active; 'I' for Inactive)
REMARK    1  A    between atoms: C3_11  and  O3_3 
REMARK    2  A    between atoms: C5_13  and  O5_5 
REMARK    3  A    between atoms: C14_24  and  O14_7 
REMARK    4  A    between atoms: C18_27  and  O14_7 
REMARK    5  A    between atoms: C1_9  and  C2_10 
REMARK    6  A    between atoms: C2_10  and  C3_11 
REMARK    7  A    between atoms: C3_11  and  C4_12 
REMARK    8  A    between atoms: C4_12  and  C5_13 
REMARK    9  A    between atoms: C5_13  and  C6_14 
REMARK   10  A    between atoms: C6_14  and  C7_15 
REMARK   11  A    between atoms: C7_15  and  C8_16 
REMARK   12  A    between atoms: C18_27  and  C19_28 
REMARK   13  A    between atoms: C19_28  and  C20_29 
ROOT
HETATM    1  C8  SIM  6866       2.199  32.329 235.480  1.00 20.00     0.004 C 
HETATM    2  C9  SIM  6866       3.217  31.293 236.073  1.00 20.00     0.009 C 
HETATM    3  C10 SIM  6866       3.635  31.748 237.491  1.00 20.00    -0.022 C 
HETATM    4  C11 SIM  6866       3.654  33.046 237.895  1.00 20.00     0.004 C 
HETATM    5  C12 SIM  6866       3.296  34.069 237.068  1.00 20.00    -0.055 C 
HETATM    6  C17 SIM  6866       3.345  35.355 237.529  1.00 20.00    -0.015 C 
HETATM    7  C16 SIM  6866       2.976  36.605 236.698  1.00 20.00     0.007 C 
HETATM    8  C15 SIM  6866       2.558  36.271 235.229  1.00 20.00     0.041 C 
HETATM    9  C14 SIM  6866       1.872  34.885 235.086  1.00 20.00     0.141 C 
HETATM   10  C13 SIM  6866       2.836  33.776 235.594  1.00 20.00     0.052 C 
HETATM   11  C9A SIM  6866       4.517  31.151 235.256  1.00 20.00     0.014 C 
HETATM   12  C24 SIM  6866       1.844  37.351 237.419  1.00 20.00     0.014 C 
ENDROOT
BRANCH   1  13
HETATM   13  C7  SIM  6866       1.701  31.954 234.038  1.00 20.00     0.009 C 
BRANCH  13  14
HETATM   14  C6  SIM  6866       0.163  31.751 233.935  1.00 20.00     0.032 C 
BRANCH  14  15
HETATM   15  C5  SIM  6866      -0.434  31.856 232.511  1.00 20.00     0.120 C 
BRANCH  15  16
HETATM   16  C4  SIM  6866       0.624  32.266 231.488  1.00 20.00     0.064 C 
BRANCH  16  17
HETATM   17  C3  SIM  6866       0.417  33.636 230.863  1.00 20.00     0.130 C 
BRANCH  17  18
HETATM   18  C2  SIM  6866       1.080  33.738 229.484  1.00 20.00     0.144 C 
BRANCH  18  19
HETATM   19  C1  SIM  6866       1.250  35.164 228.993  1.00 20.00     0.175 C 
HETATM   20  O1A SIM  6866       0.163  35.942 229.275  1.00 20.00    -0.648 OA
HETATM   21  O1B SIM  6866       2.246  35.578 228.409  1.00 20.00    -0.648 OA
ENDBRANCH  18  19
ENDBRANCH  17  18
BRANCH  17  22
HETATM   22  O3  SIM  6866       1.009  34.588 231.734  1.00 20.00    -0.395 OA
ATOM     23  H3  SIM  6866       0.555  35.418 231.644  1.00  0.00     0.210 HD
ENDBRANCH  17  22
ENDBRANCH  16  17
ENDBRANCH  15  16
BRANCH  15  24
HETATM   24  O5  SIM  6866      -1.438  32.858 232.503  1.00 20.00    -0.395 OA
ATOM     25  H5  SIM  6866      -1.000  33.696 232.404  1.00  0.00     0.210 HD
ENDBRANCH  15  24
ENDBRANCH  14  15
ENDBRANCH  13  14
ENDBRANCH   1  13
BRANCH   9  26
HETATM   26  O14 SIM  6866       0.649  34.828 235.898  1.00 20.00    -0.315 OA
BRANCH  26  27
HETATM   27  C18 SIM  6866      -0.604  34.857 235.289  1.00 20.00     0.267 C 
HETATM   28  O18 SIM  6866      -0.804  35.175 234.110  1.00 20.00    -0.264 OA
BRANCH  27  29
HETATM   29  C19 SIM  6866      -1.763  34.428 236.273  1.00 20.00     0.040 C 
HETATM   30  C22 SIM  6866      -2.775  33.471 235.570  1.00 20.00     0.025 C 
HETATM   31  C23 SIM  6866      -2.614  35.643 236.753  1.00 20.00     0.025 C 
BRANCH  29  32
HETATM   32  C20 SIM  6866      -1.190  33.715 237.538  1.00 20.00     0.014 C 
HETATM   33  C21 SIM  6866      -1.017  32.187 237.481  1.00 20.00     0.006 C 
ENDBRANCH  29  32
ENDBRANCH  27  29
ENDBRANCH  26  27
ENDBRANCH   9  26
TORSDOF 13
ENDMDL
MODEL 9
REMARK VINA RESULT:      -5.4      5.445      9.304
REMARK  13 active torsions:
REMARK  status: ('A' for Active; 'I' for Inactive)
REMARK    1  A    between atoms: C3_11  and  O3_3 
REMARK    2  A    between atoms: C5_13  and  O5_5 
REMARK    3  A    between atoms: C14_24  and  O14_7 
REMARK    4  A    between atoms: C18_27  and  O14_7 
REMARK    5  A    between atoms: C1_9  and  C2_10 
REMARK    6  A    between atoms: C2_10  and  C3_11 
REMARK    7  A    between atoms: C3_11  and  C4_12 
REMARK    8  A    between atoms: C4_12  and  C5_13 
REMARK    9  A    between atoms: C5_13  and  C6_14 
REMARK   10  A    between atoms: C6_14  and  C7_15 
REMARK   11  A    between atoms: C7_15  and  C8_16 
REMARK   12  A    between atoms: C18_27  and  C19_28 
REMARK   13  A    between atoms: C19_28  and  C20_29 
ROOT
HETATM    1  C8  SIM  6866      -3.352  36.247 228.274  1.00 20.00     0.004 C 
HETATM    2  C9  SIM  6866      -4.394  35.817 227.183  1.00 20.00     0.009 C 
HETATM    3  C10 SIM  6866      -4.102  34.362 226.747  1.00 20.00    -0.022 C 
HETATM    4  C11 SIM  6866      -2.867  33.794 226.788  1.00 20.00     0.004 C 
HETATM    5  C12 SIM  6866      -1.770  34.472 227.227  1.00 20.00    -0.055 C 
HETATM    6  C17 SIM  6866      -0.553  33.849 227.236  1.00 20.00    -0.015 C 
HETATM    7  C16 SIM  6866       0.770  34.501 227.698  1.00 20.00     0.007 C 
HETATM    8  C15 SIM  6866       0.604  35.991 228.142  1.00 20.00     0.041 C 
HETATM    9  C14 SIM  6866      -0.791  36.298 228.754  1.00 20.00     0.141 C 
HETATM   10  C13 SIM  6866      -1.898  35.960 227.715  1.00 20.00     0.052 C 
HETATM   11  C9A SIM  6866      -4.354  36.676 225.902  1.00 20.00     0.014 C 
HETATM   12  C24 SIM  6866       1.349  33.663 228.847  1.00 20.00     0.014 C 
ENDROOT
BRANCH   1  13
HETATM   13  C7  SIM  6866      -3.568  37.713 228.794  1.00 20.00     0.009 C 
BRANCH  13  14
HETATM   14  C6  SIM  6866      -3.076  38.810 227.808  1.00 20.00     0.032 C 
BRANCH  14  15
HETATM   15  C5  SIM  6866      -2.077  39.838 228.391  1.00 20.00     0.120 C 
BRANCH  15  16
HETATM   16  C4  SIM  6866      -0.926  40.112 227.426  1.00 20.00     0.064 C 
BRANCH  16  17
HETATM   17  C3  SIM  6866      -0.363  41.524 227.479  1.00 20.00     0.130 C 
BRANCH  17  18
HETATM   18  C2  SIM  6866       1.066  41.588 226.926  1.00 20.00     0.144 C 
BRANCH  18  19
HETATM   19  C1  SIM  6866       1.980  42.514 227.707  1.00 20.00     0.175 C 
HETATM   20  O1A SIM  6866       1.514  43.798 227.737  1.00 20.00    -0.648 OA
HETATM   21  O1B SIM  6866       3.020  42.158 228.251  1.00 20.00    -0.648 OA
ENDBRANCH  18  19
ENDBRANCH  17  18
BRANCH  17  22
HETATM   22  O3  SIM  6866      -0.352  41.920 228.842  1.00 20.00    -0.395 OA
ATOM     23  H3  SIM  6866       0.265  42.633 228.954  1.00  0.00     0.210 HD
ENDBRANCH  17  22
ENDBRANCH  16  17
ENDBRANCH  15  16
BRANCH  15  24
HETATM   24  O5  SIM  6866      -1.512  39.310 229.581  1.00 20.00    -0.395 OA
ATOM     25  H5  SIM  6866      -0.585  39.518 229.569  1.00  0.00     0.210 HD
ENDBRANCH  15  24
ENDBRANCH  14  15
ENDBRANCH  13  14
ENDBRANCH   1  13
BRANCH   9  26
HETATM   26  O14 SIM  6866      -1.024  35.472 229.946  1.00 20.00    -0.315 OA
BRANCH  26  27
HETATM   27  C18 SIM  6866      -1.554  36.039 231.104  1.00 20.00     0.267 C 
HETATM   28  O18 SIM  6866      -1.329  37.194 231.486  1.00 20.00    -0.264 OA
BRANCH  27  29
HETATM   29  C19 SIM  6866      -2.492  35.040 231.890  1.00 20.00     0.040 C 
HETATM   30  C22 SIM  6866      -2.889  33.821 231.001  1.00 20.00     0.025 C 
HETATM   31  C23 SIM  6866      -3.842  35.699 232.310  1.00 20.00     0.025 C 
BRANCH  29  32
HETATM   32  C20 SIM  6866      -1.793  34.514 233.183  1.00 20.00     0.014 C 
HETATM   33  C21 SIM  6866      -0.943  33.236 233.068  1.00 20.00     0.006 C 
ENDBRANCH  29  32
ENDBRANCH  27  29
ENDBRANCH  26  27
ENDBRANCH   9  26
TORSDOF 13
ENDMDL
