MODEL 1
REMARK VINA RESULT:      -5.3      0.000      0.000
REMARK  7 active torsions:
REMARK  status: ('A' for Active; 'I' for Inactive)
REMARK    1  A    between atoms: C11_14  and  C3_4 
REMARK    2  A    between atoms: N1_5  and  O4_6 
REMARK    3  A    between atoms: C11_14  and  C13_16 
REMARK    4  A    between atoms: C12_15  and  C13_16 
REMARK    5  A    between atoms: C12_15  and  C14_17 
REMARK    6  A    between atoms: C14_17  and  C15_18 
REMARK    7  A    between atoms: C15_18  and  C16_19 
ROOT
HETATM    1  C1  HQO  4295      -0.871  35.098 235.651  1.00 20.00     0.186 A 
HETATM    2  O1  HQO  4295      -1.872  34.539 236.179  1.00 20.00    -0.287 OA
HETATM    3  C2  HQO  4295      -0.233  36.155 236.334  1.00 20.00     0.083 A 
HETATM    4  C3  HQO  4295       0.900  36.800 235.754  1.00 20.00     0.044 A 
HETATM    5  N1  HQO  4295       1.379  36.392 234.519  1.00 20.00    -0.228 N 
HETATM    6  C5  HQO  4295       0.770  35.357 233.816  1.00 20.00     0.076 A 
HETATM    7  C6  HQO  4295       1.264  34.940 232.529  1.00 20.00     0.033 A 
HETATM    8  C7  HQO  4295       0.625  33.885 231.828  1.00 20.00     0.002 A 
HETATM    9  C8  HQO  4295      -0.514  33.228 232.396  1.00 20.00     0.001 A 
HETATM   10  C9  HQO  4295      -1.017  33.620 233.661  1.00 20.00     0.018 A 
HETATM   11  C10 HQO  4295      -0.388  34.679 234.381  1.00 20.00     0.043 A 
ENDROOT
BRANCH   4  12
HETATM   12  C11 HQO  4295       1.533  37.860 236.449  1.00 20.00     0.060 C 
BRANCH  12  13
HETATM   13  C13 HQO  4295       2.307  37.356 237.689  1.00 20.00     0.006 C 
BRANCH  13  14
HETATM   14  C12 HQO  4295       3.711  36.883 237.271  1.00 20.00     0.000 C 
BRANCH  14  15
HETATM   15  C14 HQO  4295       3.872  35.409 237.605  1.00 20.00     0.000 C 
BRANCH  15  16
HETATM   16  C15 HQO  4295       3.837  34.634 236.294  1.00 20.00    -0.000 C 
BRANCH  16  17
HETATM   17  C16 HQO  4295       2.737  33.564 236.423  1.00 20.00    -0.005 C 
HETATM   18  C17 HQO  4295       2.789  32.617 235.207  1.00 20.00     0.005 C 
ENDBRANCH  16  17
ENDBRANCH  15  16
ENDBRANCH  14  15
ENDBRANCH  13  14
ENDBRANCH  12  13
ENDBRANCH   4  12
BRANCH   5  19
HETATM   19  O4  HQO  4295       2.358  36.962 234.038  1.00 20.00    -0.282 OA
ATOM     20  H4  HQO  4295       2.744  37.694 234.504  1.00  0.00     0.245 HD
ENDBRANCH   5  19
TORSDOF 7
ENDMDL
MODEL 2
REMARK VINA RESULT:      -5.3      1.725      5.352
REMARK  7 active torsions:
REMARK  status: ('A' for Active; 'I' for Inactive)
REMARK    1  A    between atoms: C11_14  and  C3_4 
REMARK    2  A    between atoms: N1_5  and  O4_6 
REMARK    3  A    between atoms: C11_14  and  C13_16 
REMARK    4  A    between atoms: C12_15  and  C13_16 
REMARK    5  A    between atoms: C12_15  and  C14_17 
REMARK    6  A    between atoms: C14_17  and  C15_18 
REMARK    7  A    between atoms: C15_18  and  C16_19 
ROOT
HETATM    1  C1  HQO  4295       2.477  33.748 237.056  1.00 20.00     0.186 A 
HETATM    2  O1  HQO  4295       2.482  32.680 237.727  1.00 20.00    -0.287 OA
HETATM    3  C2  HQO  4295       1.922  33.743 235.759  1.00 20.00     0.083 A 
HETATM    4  C3  HQO  4295       1.906  34.940 234.983  1.00 20.00     0.044 A 
HETATM    5  N1  HQO  4295       2.435  36.113 235.499  1.00 20.00    -0.228 N 
HETATM    6  C5  HQO  4295       2.995  36.152 236.772  1.00 20.00     0.076 A 
HETATM    7  C6  HQO  4295       3.552  37.369 237.304  1.00 20.00     0.033 A 
HETATM    8  C7  HQO  4295       4.122  37.385 238.603  1.00 20.00     0.002 A 
HETATM    9  C8  HQO  4295       4.147  36.190 239.394  1.00 20.00     0.001 A 
HETATM   10  C9  HQO  4295       3.604  34.982 238.892  1.00 20.00     0.018 A 
HETATM   11  C10 HQO  4295       3.026  34.946 237.588  1.00 20.00     0.043 A 
ENDROOT
BRANCH   4  12
HETATM   12  C11 HQO  4295       1.345  34.923 233.682  1.00 20.00     0.060 C 
BRANCH  12  13
HETATM   13  C13 HQO  4295      -0.095  34.362 233.681  1.00 20.00     0.006 C 
BRANCH  13  14
HETATM   14  C12 HQO  4295      -1.073  35.431 234.200  1.00 20.00     0.000 C 
BRANCH  14  15
HETATM   15  C14 HQO  4295      -1.780  34.915 235.443  1.00 20.00     0.000 C 
BRANCH  15  16
HETATM   16  C15 HQO  4295      -1.362  35.801 236.610  1.00 20.00    -0.000 C 
BRANCH  16  17
HETATM   17  C16 HQO  4295      -1.003  37.182 236.032  1.00 20.00    -0.005 C 
HETATM   18  C17 HQO  4295      -0.180  37.978 237.065  1.00 20.00     0.005 C 
ENDBRANCH  16  17
ENDBRANCH  15  16
ENDBRANCH  14  15
ENDBRANCH  13  14
ENDBRANCH  12  13
ENDBRANCH   4  12
BRANCH   5  19
HETATM   19  O4  HQO  4295       2.410  37.135 234.813  1.00 20.00    -0.282 OA
ATOM     20  H4  HQO  4295       1.938  37.895 235.132  1.00  0.00     0.245 HD
ENDBRANCH   5  19
TORSDOF 7
ENDMDL
MODEL 3
REMARK VINA RESULT:      -5.3      2.427      4.635
REMARK  7 active torsions:
REMARK  status: ('A' for Active; 'I' for Inactive)
REMARK    1  A    between atoms: C11_14  and  C3_4 
REMARK    2  A    between atoms: N1_5  and  O4_6 
REMARK    3  A    between atoms: C11_14  and  C13_16 
REMARK    4  A    between atoms: C12_15  and  C13_16 
REMARK    5  A    between atoms: C12_15  and  C14_17 
REMARK    6  A    between atoms: C14_17  and  C15_18 
REMARK    7  A    between atoms: C15_18  and  C16_19 
ROOT
HETATM    1  C1  HQO  4295       3.455  35.084 238.580  1.00 20.00     0.186 A 
HETATM    2  O1  HQO  4295       3.864  35.050 239.772  1.00 20.00    -0.287 OA
HETATM    3  C2  HQO  4295       2.779  36.233 238.116  1.00 20.00     0.083 A 
HETATM    4  C3  HQO  4295       2.308  36.292 236.771  1.00 20.00     0.044 A 
HETATM    5  N1  HQO  4295       2.511  35.222 235.913  1.00 20.00    -0.228 N 
HETATM    6  C5  HQO  4295       3.169  34.072 236.339  1.00 20.00     0.076 A 
HETATM    7  C6  HQO  4295       3.373  32.958 235.449  1.00 20.00     0.033 A 
HETATM    8  C7  HQO  4295       4.043  31.793 235.905  1.00 20.00     0.002 A 
HETATM    9  C8  HQO  4295       4.521  31.719 237.254  1.00 20.00     0.001 A 
HETATM   10  C9  HQO  4295       4.333  32.803 238.147  1.00 20.00     0.018 A 
HETATM   11  C10 HQO  4295       3.661  33.982 237.706  1.00 20.00     0.043 A 
ENDROOT
BRANCH   4  12
HETATM   12  C11 HQO  4295       1.631  37.450 236.317  1.00 20.00     0.060 C 
BRANCH  12  13
HETATM   13  C13 HQO  4295       0.508  37.881 237.288  1.00 20.00     0.006 C 
BRANCH  13  14
HETATM   14  C12 HQO  4295      -0.806  38.083 236.512  1.00 20.00     0.000 C 
BRANCH  14  15
HETATM   15  C14 HQO  4295      -1.113  36.837 235.697  1.00 20.00     0.000 C 
BRANCH  15  16
HETATM   16  C15 HQO  4295      -1.639  35.778 236.657  1.00 20.00    -0.000 C 
BRANCH  16  17
HETATM   17  C16 HQO  4295      -1.050  34.426 236.215  1.00 20.00    -0.005 C 
HETATM   18  C17 HQO  4295      -0.365  33.740 237.414  1.00 20.00     0.005 C 
ENDBRANCH  16  17
ENDBRANCH  15  16
ENDBRANCH  14  15
ENDBRANCH  13  14
ENDBRANCH  12  13
ENDBRANCH   4  12
BRANCH   5  19
HETATM   19  O4  HQO  4295       2.098  35.294 234.756  1.00 20.00    -0.282 OA
ATOM     20  H4  HQO  4295       1.510  36.001 234.517  1.00  0.00     0.245 HD
ENDBRANCH   5  19
TORSDOF 7
ENDMDL
MODEL 4
REMARK VINA RESULT:      -5.1      1.894      4.885
REMARK  7 active torsions:
REMARK  status: ('A' for Active; 'I' for Inactive)
REMARK    1  A    between atoms: C11_14  and  C3_4 
REMARK    2  A    between atoms: N1_5  and  O4_6 
REMARK    3  A    between atoms: C11_14  and  C13_16 
REMARK    4  A    between atoms: C12_15  and  C13_16 
REMARK    5  A    between atoms: C12_15  and  C14_17 
REMARK    6  A    between atoms: C14_17  and  C15_18 
REMARK    7  A    between atoms: C15_18  and  C16_19 
ROOT
HETATM    1  C1  HQO  4295       0.964  34.107 237.460  1.00 20.00     0.186 A 
HETATM    2  O1  HQO  4295       1.349  32.959 237.810  1.00 20.00    -0.287 OA
HETATM    3  C2  HQO  4295      -0.382  34.295 237.081  1.00 20.00     0.083 A 
HETATM    4  C3  HQO  4295      -0.840  35.586 236.682  1.00 20.00     0.044 A 
HETATM    5  N1  HQO  4295       0.035  36.661 236.663  1.00 20.00    -0.228 N 
HETATM    6  C5  HQO  4295       1.369  36.510 237.026  1.00 20.00     0.076 A 
HETATM    7  C6  HQO  4295       2.279  37.626 236.999  1.00 20.00     0.033 A 
HETATM    8  C7  HQO  4295       3.638  37.448 237.368  1.00 20.00     0.002 A 
HETATM    9  C8  HQO  4295       4.112  36.158 237.771  1.00 20.00     0.001 A 
HETATM   10  C9  HQO  4295       3.236  35.045 237.807  1.00 20.00     0.018 A 
HETATM   11  C10 HQO  4295       1.866  35.205 237.438  1.00 20.00     0.043 A 
ENDROOT
BRANCH   4  12
HETATM   12  C11 HQO  4295      -2.193  35.762 236.304  1.00 20.00     0.060 C 
BRANCH  12  13
HETATM   13  C13 HQO  4295      -2.583  34.857 235.112  1.00 20.00     0.006 C 
BRANCH  13  14
HETATM   14  C12 HQO  4295      -2.304  35.589 233.787  1.00 20.00     0.000 C 
BRANCH  14  15
HETATM   15  C14 HQO  4295      -1.056  35.013 233.140  1.00 20.00     0.000 C 
BRANCH  15  16
HETATM   16  C15 HQO  4295      -0.003  36.113 233.111  1.00 20.00    -0.000 C 
BRANCH  16  17
HETATM   17  C16 HQO  4295       1.347  35.465 233.470  1.00 20.00    -0.005 C 
HETATM   18  C17 HQO  4295       1.148  33.957 233.727  1.00 20.00     0.005 C 
ENDBRANCH  16  17
ENDBRANCH  15  16
ENDBRANCH  14  15
ENDBRANCH  13  14
ENDBRANCH  12  13
ENDBRANCH   4  12
BRANCH   5  19
HETATM   19  O4  HQO  4295      -0.381  37.767 236.316  1.00 20.00    -0.282 OA
ATOM     20  H4  HQO  4295      -0.711  38.365 236.976  1.00  0.00     0.245 HD
ENDBRANCH   5  19
TORSDOF 7
ENDMDL
MODEL 5
REMARK VINA RESULT:      -5.1      2.198      5.893
REMARK  7 active torsions:
REMARK  status: ('A' for Active; 'I' for Inactive)
REMARK    1  A    between atoms: C11_14  and  C3_4 
REMARK    2  A    between atoms: N1_5  and  O4_6 
REMARK    3  A    between atoms: C11_14  and  C13_16 
REMARK    4  A    between atoms: C12_15  and  C13_16 
REMARK    5  A    between atoms: C12_15  and  C14_17 
REMARK    6  A    between atoms: C14_17  and  C15_18 
REMARK    7  A    between atoms: C15_18  and  C16_19 
ROOT
HETATM    1  C1  HQO  4295       2.729  33.657 235.964  1.00 20.00     0.186 A 
HETATM    2  O1  HQO  4295       3.112  32.537 236.401  1.00 20.00    -0.287 OA
HETATM    3  C2  HQO  4295       2.034  33.716 234.738  1.00 20.00     0.083 A 
HETATM    4  C3  HQO  4295       1.592  34.973 234.226  1.00 20.00     0.044 A 
HETATM    5  N1  HQO  4295       1.843  36.140 234.930  1.00 20.00    -0.228 N 
HETATM    6  C5  HQO  4295       2.530  36.118 236.140  1.00 20.00     0.076 A 
HETATM    7  C6  HQO  4295       2.797  37.332 236.867  1.00 20.00     0.033 A 
HETATM    8  C7  HQO  4295       3.504  37.287 238.097  1.00 20.00     0.002 A 
HETATM    9  C8  HQO  4295       3.955  36.033 238.623  1.00 20.00     0.001 A 
HETATM   10  C9  HQO  4295       3.703  34.825 237.926  1.00 20.00     0.018 A 
HETATM   11  C10 HQO  4295       2.994  34.851 236.688  1.00 20.00     0.043 A 
ENDROOT
BRANCH   4  12
HETATM   12  C11 HQO  4295       0.895  35.020 232.994  1.00 20.00     0.060 C 
BRANCH  12  13
HETATM   13  C13 HQO  4295       0.714  33.613 232.378  1.00 20.00     0.006 C 
BRANCH  13  14
HETATM   14  C12 HQO  4295       0.938  33.676 230.857  1.00 20.00     0.000 C 
BRANCH  14  15
HETATM   15  C14 HQO  4295       1.528  35.025 230.483  1.00 20.00     0.000 C 
BRANCH  15  16
HETATM   16  C15 HQO  4295       1.275  35.243 228.997  1.00 20.00    -0.000 C 
BRANCH  16  17
HETATM   17  C16 HQO  4295       1.363  33.867 228.310  1.00 20.00    -0.005 C 
HETATM   18  C17 HQO  4295       2.465  33.895 227.232  1.00 20.00     0.005 C 
ENDBRANCH  16  17
ENDBRANCH  15  16
ENDBRANCH  14  15
ENDBRANCH  13  14
ENDBRANCH  12  13
ENDBRANCH   4  12
BRANCH   5  19
HETATM   19  O4  HQO  4295       1.452  37.213 234.471  1.00 20.00    -0.282 OA
ATOM     20  H4  HQO  4295       0.676  37.227 233.923  1.00  0.00     0.245 HD
ENDBRANCH   5  19
TORSDOF 7
ENDMDL
MODEL 6
REMARK VINA RESULT:      -5.0      2.645      5.467
REMARK  7 active torsions:
REMARK  status: ('A' for Active; 'I' for Inactive)
REMARK    1  A    between atoms: C11_14  and  C3_4 
REMARK    2  A    between atoms: N1_5  and  O4_6 
REMARK    3  A    between atoms: C11_14  and  C13_16 
REMARK    4  A    between atoms: C12_15  and  C13_16 
REMARK    5  A    between atoms: C12_15  and  C14_17 
REMARK    6  A    between atoms: C14_17  and  C15_18 
REMARK    7  A    between atoms: C15_18  and  C16_19 
ROOT
HETATM    1  C1  HQO  4295       3.340  34.016 236.377  1.00 20.00     0.186 A 
HETATM    2  O1  HQO  4295       3.241  33.231 235.395  1.00 20.00    -0.287 OA
HETATM    3  C2  HQO  4295       2.870  35.340 236.249  1.00 20.00     0.083 A 
HETATM    4  C3  HQO  4295       2.972  36.245 237.348  1.00 20.00     0.044 A 
HETATM    5  N1  HQO  4295       3.534  35.828 238.544  1.00 20.00    -0.228 N 
HETATM    6  C5  HQO  4295       4.012  34.531 238.703  1.00 20.00     0.076 A 
HETATM    7  C6  HQO  4295       4.601  34.101 239.944  1.00 20.00     0.033 A 
HETATM    8  C7  HQO  4295       5.087  32.775 240.083  1.00 20.00     0.002 A 
HETATM    9  C8  HQO  4295       4.992  31.855 238.988  1.00 20.00     0.001 A 
HETATM   10  C9  HQO  4295       4.414  32.255 237.758  1.00 20.00     0.018 A 
HETATM   11  C10 HQO  4295       3.921  33.585 237.600  1.00 20.00     0.043 A 
ENDROOT
BRANCH   4  12
HETATM   12  C11 HQO  4295       2.497  37.572 237.207  1.00 20.00     0.060 C 
BRANCH  12  13
HETATM   13  C13 HQO  4295       1.306  37.658 236.226  1.00 20.00     0.006 C 
BRANCH  13  14
HETATM   14  C12 HQO  4295       0.019  38.007 236.996  1.00 20.00     0.000 C 
BRANCH  14  15
HETATM   15  C14 HQO  4295      -1.094  37.057 236.585  1.00 20.00     0.000 C 
BRANCH  15  16
HETATM   16  C15 HQO  4295      -0.592  36.247 235.397  1.00 20.00    -0.000 C 
BRANCH  16  17
HETATM   17  C16 HQO  4295      -1.027  34.787 235.620  1.00 20.00    -0.005 C 
HETATM   18  C17 HQO  4295      -0.574  34.318 237.018  1.00 20.00     0.005 C 
ENDBRANCH  16  17
ENDBRANCH  15  16
ENDBRANCH  14  15
ENDBRANCH  13  14
ENDBRANCH  12  13
ENDBRANCH   4  12
BRANCH   5  19
HETATM   19  O4  HQO  4295       3.611  36.624 239.480  1.00 20.00    -0.282 OA
ATOM     20  H4  HQO  4295       4.093  36.377 240.260  1.00  0.00     0.245 HD
ENDBRANCH   5  19
TORSDOF 7
ENDMDL
MODEL 7
REMARK VINA RESULT:      -4.9      2.603      5.909
REMARK  7 active torsions:
REMARK  status: ('A' for Active; 'I' for Inactive)
REMARK    1  A    between atoms: C11_14  and  C3_4 
REMARK    2  A    between atoms: N1_5  and  O4_6 
REMARK    3  A    between atoms: C11_14  and  C13_16 
REMARK    4  A    between atoms: C12_15  and  C13_16 
REMARK    5  A    between atoms: C12_15  and  C14_17 
REMARK    6  A    between atoms: C14_17  and  C15_18 
REMARK    7  A    between atoms: C15_18  and  C16_19 
ROOT
HETATM    1  C1  HQO  4295      -1.357  35.761 234.177  1.00 20.00     0.186 A 
HETATM    2  O1  HQO  4295      -2.592  35.535 234.291  1.00 20.00    -0.287 OA
HETATM    3  C2  HQO  4295      -0.663  35.244 233.063  1.00 20.00     0.083 A 
HETATM    4  C3  HQO  4295       0.736  35.488 232.914  1.00 20.00     0.044 A 
HETATM    5  N1  HQO  4295       1.418  36.233 233.863  1.00 20.00    -0.228 N 
HETATM    6  C5  HQO  4295       0.765  36.754 234.976  1.00 20.00     0.076 A 
HETATM    7  C6  HQO  4295       1.477  37.522 235.965  1.00 20.00     0.033 A 
HETATM    8  C7  HQO  4295       0.792  38.039 237.096  1.00 20.00     0.002 A 
HETATM    9  C8  HQO  4295      -0.612  37.802 237.259  1.00 20.00     0.001 A 
HETATM   10  C9  HQO  4295      -1.333  37.051 236.298  1.00 20.00     0.018 A 
HETATM   11  C10 HQO  4295      -0.661  36.522 235.156  1.00 20.00     0.043 A 
ENDROOT
BRANCH   4  12
HETATM   12  C11 HQO  4295       1.422  34.964 231.792  1.00 20.00     0.060 C 
BRANCH  12  13
HETATM   13  C13 HQO  4295       0.584  35.078 230.498  1.00 20.00     0.006 C 
BRANCH  13  14
HETATM   14  C12 HQO  4295       1.299  34.347 229.347  1.00 20.00     0.000 C 
BRANCH  14  15
HETATM   15  C14 HQO  4295       1.956  35.363 228.428  1.00 20.00     0.000 C 
BRANCH  15  16
HETATM   16  C15 HQO  4295       2.387  34.630 227.164  1.00 20.00    -0.000 C 
BRANCH  16  17
HETATM   17  C16 HQO  4295       1.659  33.274 227.149  1.00 20.00    -0.005 C 
HETATM   18  C17 HQO  4295       2.625  32.171 226.672  1.00 20.00     0.005 C 
ENDBRANCH  16  17
ENDBRANCH  15  16
ENDBRANCH  14  15
ENDBRANCH  13  14
ENDBRANCH  12  13
ENDBRANCH   4  12
BRANCH   5  19
HETATM   19  O4  HQO  4295       2.624  36.433 233.716  1.00 20.00    -0.282 OA
ATOM     20  H4  HQO  4295       2.910  37.125 233.131  1.00  0.00     0.245 HD
ENDBRANCH   5  19
TORSDOF 7
ENDMDL
MODEL 8
REMARK VINA RESULT:      -4.8      2.197      3.406
REMARK  7 active torsions:
REMARK  status: ('A' for Active; 'I' for Inactive)
REMARK    1  A    between atoms: C11_14  and  C3_4 
REMARK    2  A    between atoms: N1_5  and  O4_6 
REMARK    3  A    between atoms: C11_14  and  C13_16 
REMARK    4  A    between atoms: C12_15  and  C13_16 
REMARK    5  A    between atoms: C12_15  and  C14_17 
REMARK    6  A    between atoms: C14_17  and  C15_18 
REMARK    7  A    between atoms: C15_18  and  C16_19 
ROOT
HETATM    1  C1  HQO  4295      -1.998  36.249 232.217  1.00 20.00     0.186 A 
HETATM    2  O1  HQO  4295      -3.070  36.601 231.654  1.00 20.00    -0.287 OA
HETATM    3  C2  HQO  4295      -1.908  36.306 233.624  1.00 20.00     0.083 A 
HETATM    4  C3  HQO  4295      -0.705  35.912 234.281  1.00 20.00     0.044 A 
HETATM    5  N1  HQO  4295       0.381  35.471 233.541  1.00 20.00    -0.228 N 
HETATM    6  C5  HQO  4295       0.329  35.407 232.153  1.00 20.00     0.076 A 
HETATM    7  C6  HQO  4295       1.461  34.956 231.385  1.00 20.00     0.033 A 
HETATM    8  C7  HQO  4295       1.387  34.903 229.968  1.00 20.00     0.002 A 
HETATM    9  C8  HQO  4295       0.186  35.296 229.294  1.00 20.00     0.001 A 
HETATM   10  C9  HQO  4295      -0.941  35.742 230.029  1.00 20.00     0.018 A 
HETATM   11  C10 HQO  4295      -0.885  35.803 231.453  1.00 20.00     0.043 A 
ENDROOT
BRANCH   4  12
HETATM   12  C11 HQO  4295      -0.627  35.974 235.694  1.00 20.00     0.060 C 
BRANCH  12  13
HETATM   13  C13 HQO  4295      -1.055  37.357 236.236  1.00 20.00     0.006 C 
BRANCH  13  14
HETATM   14  C12 HQO  4295       0.084  37.966 237.073  1.00 20.00     0.000 C 
BRANCH  14  15
HETATM   15  C14 HQO  4295       1.219  36.963 237.195  1.00 20.00     0.000 C 
BRANCH  15  16
HETATM   16  C15 HQO  4295       2.501  37.664 236.767  1.00 20.00    -0.000 C 
BRANCH  16  17
HETATM   17  C16 HQO  4295       3.681  36.839 237.314  1.00 20.00    -0.005 C 
HETATM   18  C17 HQO  4295       3.986  37.268 238.763  1.00 20.00     0.005 C 
ENDBRANCH  16  17
ENDBRANCH  15  16
ENDBRANCH  14  15
ENDBRANCH  13  14
ENDBRANCH  12  13
ENDBRANCH   4  12
BRANCH   5  19
HETATM   19  O4  HQO  4295       1.410  35.135 234.128  1.00 20.00    -0.282 OA
ATOM     20  H4  HQO  4295       2.215  35.037 233.633  1.00  0.00     0.245 HD
ENDBRANCH   5  19
TORSDOF 7
ENDMDL
MODEL 9
REMARK VINA RESULT:      -4.6      1.933      3.581
REMARK  7 active torsions:
REMARK  status: ('A' for Active; 'I' for Inactive)
REMARK    1  A    between atoms: C11_14  and  C3_4 
REMARK    2  A    between atoms: N1_5  and  O4_6 
REMARK    3  A    between atoms: C11_14  and  C13_16 
REMARK    4  A    between atoms: C12_15  and  C13_16 
REMARK    5  A    between atoms: C12_15  and  C14_17 
REMARK    6  A    between atoms: C14_17  and  C15_18 
REMARK    7  A    between atoms: C15_18  and  C16_19 
ROOT
HETATM    1  C1  HQO  4295       1.250  34.958 233.372  1.00 20.00     0.186 A 
HETATM    2  O1  HQO  4295       0.690  35.362 232.317  1.00 20.00    -0.287 OA
HETATM    3  C2  HQO  4295       1.752  35.903 234.291  1.00 20.00     0.083 A 
HETATM    4  C3  HQO  4295       2.389  35.467 235.491  1.00 20.00     0.044 A 
HETATM    5  N1  HQO  4295       2.518  34.114 235.759  1.00 20.00    -0.228 N 
HETATM    6  C5  HQO  4295       2.039  33.154 234.873  1.00 20.00     0.076 A 
HETATM    7  C6  HQO  4295       2.180  31.748 235.150  1.00 20.00     0.033 A 
HETATM    8  C7  HQO  4295       1.687  30.786 234.230  1.00 20.00     0.002 A 
HETATM    9  C8  HQO  4295       1.046  31.209 233.020  1.00 20.00     0.001 A 
HETATM   10  C9  HQO  4295       0.895  32.587 232.727  1.00 20.00     0.018 A 
HETATM   11  C10 HQO  4295       1.384  33.568 233.641  1.00 20.00     0.043 A 
ENDROOT
BRANCH   4  12
HETATM   12  C11 HQO  4295       2.890  36.426 236.405  1.00 20.00     0.060 C 
BRANCH  12  13
HETATM   13  C13 HQO  4295       1.780  36.979 237.328  1.00 20.00     0.006 C 
BRANCH  13  14
HETATM   14  C12 HQO  4295       0.938  38.020 236.568  1.00 20.00     0.000 C 
BRANCH  14  15
HETATM   15  C14 HQO  4295      -0.525  37.870 236.950  1.00 20.00     0.000 C 
BRANCH  15  16
HETATM   16  C15 HQO  4295      -1.168  36.920 235.948  1.00 20.00    -0.000 C 
BRANCH  16  17
HETATM   17  C16 HQO  4295      -1.319  35.554 236.642  1.00 20.00    -0.005 C 
HETATM   18  C17 HQO  4295      -1.638  34.471 235.591  1.00 20.00     0.005 C 
ENDBRANCH  16  17
ENDBRANCH  15  16
ENDBRANCH  14  15
ENDBRANCH  13  14
ENDBRANCH  12  13
ENDBRANCH   4  12
BRANCH   5  19
HETATM   19  O4  HQO  4295       3.070  33.759 236.801  1.00 20.00    -0.282 OA
ATOM     20  H4  HQO  4295       2.537  33.507 237.546  1.00  0.00     0.245 HD
ENDBRANCH   5  19
TORSDOF 7
ENDMDL
