MODEL 1
REMARK VINA RESULT:      -5.5      0.000      0.000
REMARK  3 active torsions:
REMARK  status: ('A' for Active; 'I' for Inactive)
REMARK    1  A    between atoms: C8_4  and  C9_2 
REMARK       I    between atoms: C4_9  and  N_8 
REMARK    2  A    between atoms: C2_11  and  C4_9 
REMARK    3  A    between atoms: C1_13  and  C2_11 
ROOT
HETATM    1  C8  MCO  5085       0.793  41.810 227.744  1.00 20.00     0.188 C 
HETATM    2  C7  MCO  5085       1.985  41.624 226.803  1.00 20.00     0.038 C 
HETATM    3  C6  MCO  5085       2.447  40.181 227.037  1.00 20.00     0.022 C 
HETATM    4  C5  MCO  5085       1.162  39.397 227.322  1.00 20.00     0.127 C 
HETATM    5  N   MCO  5085       0.225  40.445 227.789  1.00 20.00    -0.337 N 
HETATM    6  C4  MCO  5085      -1.063  40.187 228.104  1.00 20.00     0.225 C 
HETATM    7  O1  MCO  5085      -1.820  41.115 228.396  1.00 20.00    -0.273 OA
ENDROOT
BRANCH   6   8
HETATM    8  C2  MCO  5085      -1.570  38.741 228.114  1.00 20.00     0.084 C 
HETATM    9  C3  MCO  5085      -3.034  38.720 227.656  1.00 20.00     0.020 C 
BRANCH   8  10
HETATM   10  C1  MCO  5085      -1.431  38.144 229.516  1.00 20.00     0.099 C 
HETATM   11  S   MCO  5085      -1.699  36.336 229.526  1.00 20.00    -0.097 SA
ENDBRANCH   8  10
ENDBRANCH   6   8
BRANCH   1  12
HETATM   12  C9  MCO  5085       1.284  42.206 229.155  1.00 20.00     0.196 C 
HETATM   13  O3  MCO  5085       0.462  42.765 229.908  1.00 20.00    -0.646 OA
HETATM   14  O2  MCO  5085       2.473  41.939 229.442  1.00 20.00    -0.646 OA
ENDBRANCH   1  12
TORSDOF 3
ENDMDL
MODEL 2
REMARK VINA RESULT:      -5.0      9.693     10.825
REMARK  3 active torsions:
REMARK  status: ('A' for Active; 'I' for Inactive)
REMARK    1  A    between atoms: C8_4  and  C9_2 
REMARK       I    between atoms: C4_9  and  N_8 
REMARK    2  A    between atoms: C2_11  and  C4_9 
REMARK    3  A    between atoms: C1_13  and  C2_11 
ROOT
HETATM    1  C8  MCO  5085       3.191  35.108 238.559  1.00 20.00     0.188 C 
HETATM    2  C7  MCO  5085       4.213  35.901 239.375  1.00 20.00     0.038 C 
HETATM    3  C6  MCO  5085       4.705  36.999 238.425  1.00 20.00     0.022 C 
HETATM    4  C5  MCO  5085       3.482  37.364 237.578  1.00 20.00     0.127 C 
HETATM    5  N   MCO  5085       2.634  36.152 237.671  1.00 20.00    -0.337 N 
HETATM    6  C4  MCO  5085       1.414  36.067 237.098  1.00 20.00     0.225 C 
HETATM    7  O1  MCO  5085       0.716  35.068 237.288  1.00 20.00    -0.273 OA
ENDROOT
BRANCH   6   8
HETATM    8  C2  MCO  5085       0.912  37.203 236.200  1.00 20.00     0.084 C 
HETATM    9  C3  MCO  5085      -0.168  37.992 236.948  1.00 20.00     0.020 C 
BRANCH   8  10
HETATM   10  C1  MCO  5085       0.361  36.635 234.890  1.00 20.00     0.099 C 
HETATM   11  S   MCO  5085       1.676  35.931 233.835  1.00 20.00    -0.097 SA
ENDBRANCH   8  10
ENDBRANCH   6   8
BRANCH   1  12
HETATM   12  C9  MCO  5085       3.904  34.036 237.704  1.00 20.00     0.196 C 
HETATM   13  O3  MCO  5085       3.954  34.230 236.473  1.00 20.00    -0.646 OA
HETATM   14  O2  MCO  5085       4.379  33.048 238.307  1.00 20.00    -0.646 OA
ENDBRANCH   1  12
TORSDOF 3
ENDMDL
MODEL 3
REMARK VINA RESULT:      -4.7      7.697      9.147
REMARK  3 active torsions:
REMARK  status: ('A' for Active; 'I' for Inactive)
REMARK    1  A    between atoms: C8_4  and  C9_2 
REMARK       I    between atoms: C4_9  and  N_8 
REMARK    2  A    between atoms: C2_11  and  C4_9 
REMARK    3  A    between atoms: C1_13  and  C2_11 
ROOT
HETATM    1  C8  MCO  5085      -1.368  36.868 235.894  1.00 20.00     0.188 C 
HETATM    2  C7  MCO  5085      -0.856  38.089 236.660  1.00 20.00     0.038 C 
HETATM    3  C6  MCO  5085       0.551  37.696 237.127  1.00 20.00     0.022 C 
HETATM    4  C5  MCO  5085       1.106  36.814 236.005  1.00 20.00     0.127 C 
HETATM    5  N   MCO  5085      -0.116  36.313 235.334  1.00 20.00    -0.337 N 
HETATM    6  C4  MCO  5085      -0.078  35.525 234.238  1.00 20.00     0.225 C 
HETATM    7  O1  MCO  5085      -1.127  35.217 233.668  1.00 20.00    -0.273 OA
ENDROOT
BRANCH   6   8
HETATM    8  C2  MCO  5085       1.267  35.004 233.719  1.00 20.00     0.084 C 
HETATM    9  C3  MCO  5085       1.306  35.151 232.194  1.00 20.00     0.020 C 
BRANCH   8  10
HETATM   10  C1  MCO  5085       1.459  33.542 234.130  1.00 20.00     0.099 C 
HETATM   11  S   MCO  5085       2.649  33.361 235.503  1.00 20.00    -0.097 SA
ENDBRANCH   8  10
ENDBRANCH   6   8
BRANCH   1  12
HETATM   12  C9  MCO  5085      -1.988  35.844 236.872  1.00 20.00     0.196 C 
HETATM   13  O3  MCO  5085      -3.091  36.132 237.376  1.00 20.00    -0.646 OA
HETATM   14  O2  MCO  5085      -1.335  34.798 237.091  1.00 20.00    -0.646 OA
ENDBRANCH   1  12
TORSDOF 3
ENDMDL
MODEL 4
REMARK VINA RESULT:      -4.7      7.788      9.097
REMARK  3 active torsions:
REMARK  status: ('A' for Active; 'I' for Inactive)
REMARK    1  A    between atoms: C8_4  and  C9_2 
REMARK       I    between atoms: C4_9  and  N_8 
REMARK    2  A    between atoms: C2_11  and  C4_9 
REMARK    3  A    between atoms: C1_13  and  C2_11 
ROOT
HETATM    1  C8  MCO  5085       3.050  35.180 235.904  1.00 20.00     0.188 C 
HETATM    2  C7  MCO  5085       3.757  33.858 236.203  1.00 20.00     0.038 C 
HETATM    3  C6  MCO  5085       2.697  32.780 235.947  1.00 20.00     0.022 C 
HETATM    4  C5  MCO  5085       1.861  33.319 234.781  1.00 20.00     0.127 C 
HETATM    5  N   MCO  5085       2.090  34.781 234.850  1.00 20.00    -0.337 N 
HETATM    6  C4  MCO  5085       1.567  35.647 233.955  1.00 20.00     0.225 C 
HETATM    7  O1  MCO  5085       1.869  36.841 234.009  1.00 20.00    -0.273 OA
ENDROOT
BRANCH   6   8
HETATM    8  C2  MCO  5085       0.588  35.142 232.889  1.00 20.00     0.084 C 
HETATM    9  C3  MCO  5085       1.320  35.040 231.546  1.00 20.00     0.020 C 
BRANCH   8  10
HETATM   10  C1  MCO  5085      -0.609  36.090 232.784  1.00 20.00     0.099 C 
HETATM   11  S   MCO  5085      -1.641  36.067 234.291  1.00 20.00    -0.097 SA
ENDBRANCH   8  10
ENDBRANCH   6   8
BRANCH   1  12
HETATM   12  C9  MCO  5085       2.270  35.663 237.148  1.00 20.00     0.196 C 
HETATM   13  O3  MCO  5085       2.939  35.987 238.149  1.00 20.00    -0.646 OA
HETATM   14  O2  MCO  5085       1.021  35.692 237.063  1.00 20.00    -0.646 OA
ENDBRANCH   1  12
TORSDOF 3
ENDMDL
MODEL 5
REMARK VINA RESULT:      -4.6      8.004      9.809
REMARK  3 active torsions:
REMARK  status: ('A' for Active; 'I' for Inactive)
REMARK    1  A    between atoms: C8_4  and  C9_2 
REMARK       I    between atoms: C4_9  and  N_8 
REMARK    2  A    between atoms: C2_11  and  C4_9 
REMARK    3  A    between atoms: C1_13  and  C2_11 
ROOT
HETATM    1  C8  MCO  5085      -0.894  36.732 235.710  1.00 20.00     0.188 C 
HETATM    2  C7  MCO  5085      -1.985  36.006 236.499  1.00 20.00     0.038 C 
HETATM    3  C6  MCO  5085      -1.362  34.659 236.880  1.00 20.00     0.022 C 
HETATM    4  C5  MCO  5085       0.121  34.964 237.116  1.00 20.00     0.127 C 
HETATM    5  N   MCO  5085       0.337  36.206 236.339  1.00 20.00    -0.337 N 
HETATM    6  C4  MCO  5085       1.520  36.857 236.315  1.00 20.00     0.225 C 
HETATM    7  O1  MCO  5085       1.614  37.937 235.726  1.00 20.00    -0.273 OA
ENDROOT
BRANCH   6   8
HETATM    8  C2  MCO  5085       2.743  36.243 237.005  1.00 20.00     0.084 C 
HETATM    9  C3  MCO  5085       3.607  37.367 237.588  1.00 20.00     0.020 C 
BRANCH   8  10
HETATM   10  C1  MCO  5085       3.545  35.405 236.006  1.00 20.00     0.099 C 
HETATM   11  S   MCO  5085       3.653  33.651 236.507  1.00 20.00    -0.097 SA
ENDBRANCH   8  10
ENDBRANCH   6   8
BRANCH   1  12
HETATM   12  C9  MCO  5085      -0.932  36.304 234.225  1.00 20.00     0.196 C 
HETATM   13  O3  MCO  5085      -0.027  35.545 233.828  1.00 20.00    -0.646 OA
HETATM   14  O2  MCO  5085      -1.869  36.754 233.526  1.00 20.00    -0.646 OA
ENDBRANCH   1  12
TORSDOF 3
ENDMDL
MODEL 6
REMARK VINA RESULT:      -4.6      8.824      9.723
REMARK  3 active torsions:
REMARK  status: ('A' for Active; 'I' for Inactive)
REMARK    1  A    between atoms: C8_4  and  C9_2 
REMARK       I    between atoms: C4_9  and  N_8 
REMARK    2  A    between atoms: C2_11  and  C4_9 
REMARK    3  A    between atoms: C1_13  and  C2_11 
ROOT
HETATM    1  C8  MCO  5085       1.912  35.303 237.187  1.00 20.00     0.188 C 
HETATM    2  C7  MCO  5085       2.674  36.514 237.727  1.00 20.00     0.038 C 
HETATM    3  C6  MCO  5085       2.173  37.696 236.890  1.00 20.00     0.022 C 
HETATM    4  C5  MCO  5085       0.700  37.384 236.609  1.00 20.00     0.127 C 
HETATM    5  N   MCO  5085       0.632  35.912 236.763  1.00 20.00    -0.337 N 
HETATM    6  C4  MCO  5085      -0.520  35.217 236.647  1.00 20.00     0.225 C 
HETATM    7  O1  MCO  5085      -0.530  34.006 236.879  1.00 20.00    -0.273 OA
ENDROOT
BRANCH   6   8
HETATM    8  C2  MCO  5085      -1.803  35.934 236.212  1.00 20.00     0.084 C 
HETATM    9  C3  MCO  5085      -2.894  35.687 237.261  1.00 20.00     0.020 C 
BRANCH   8  10
HETATM   10  C1  MCO  5085      -2.247  35.430 234.837  1.00 20.00     0.099 C 
HETATM   11  S   MCO  5085      -1.353  36.259 233.477  1.00 20.00    -0.097 SA
ENDBRANCH   8  10
ENDBRANCH   6   8
BRANCH   1  12
HETATM   12  C9  MCO  5085       2.636  34.722 235.951  1.00 20.00     0.196 C 
HETATM   13  O3  MCO  5085       2.036  34.780 234.860  1.00 20.00    -0.646 OA
HETATM   14  O2  MCO  5085       3.773  34.232 236.134  1.00 20.00    -0.646 OA
ENDBRANCH   1  12
TORSDOF 3
ENDMDL
MODEL 7
REMARK VINA RESULT:      -4.6      8.158      9.427
REMARK  3 active torsions:
REMARK  status: ('A' for Active; 'I' for Inactive)
REMARK    1  A    between atoms: C8_4  and  C9_2 
REMARK       I    between atoms: C4_9  and  N_8 
REMARK    2  A    between atoms: C2_11  and  C4_9 
REMARK    3  A    between atoms: C1_13  and  C2_11 
ROOT
HETATM    1  C8  MCO  5085       3.423  35.598 236.111  1.00 20.00     0.188 C 
HETATM    2  C7  MCO  5085       3.825  34.245 236.701  1.00 20.00     0.038 C 
HETATM    3  C6  MCO  5085       2.564  33.736 237.409  1.00 20.00     0.022 C 
HETATM    4  C5  MCO  5085       1.400  34.236 236.547  1.00 20.00     0.127 C 
HETATM    5  N   MCO  5085       1.986  35.391 235.827  1.00 20.00    -0.337 N 
HETATM    6  C4  MCO  5085       1.300  36.104 234.908  1.00 20.00     0.225 C 
HETATM    7  O1  MCO  5085       1.870  36.995 234.274  1.00 20.00    -0.273 OA
ENDROOT
BRANCH   6   8
HETATM    8  C2  MCO  5085      -0.186  35.814 234.670  1.00 20.00     0.084 C 
HETATM    9  C3  MCO  5085      -0.529  36.121 233.208  1.00 20.00     0.020 C 
BRANCH   8  10
HETATM   10  C1  MCO  5085      -1.045  36.655 235.618  1.00 20.00     0.099 C 
HETATM   11  S   MCO  5085      -2.231  35.636 236.562  1.00 20.00    -0.097 SA
ENDBRANCH   8  10
ENDBRANCH   6   8
BRANCH   1  12
HETATM   12  C9  MCO  5085       3.579  36.711 237.172  1.00 20.00     0.196 C 
HETATM   13  O3  MCO  5085       4.739  37.042 237.485  1.00 20.00    -0.646 OA
HETATM   14  O2  MCO  5085       2.527  37.201 237.644  1.00 20.00    -0.646 OA
ENDBRANCH   1  12
TORSDOF 3
ENDMDL
MODEL 8
REMARK VINA RESULT:      -4.5      8.650      9.865
REMARK  3 active torsions:
REMARK  status: ('A' for Active; 'I' for Inactive)
REMARK    1  A    between atoms: C8_4  and  C9_2 
REMARK       I    between atoms: C4_9  and  N_8 
REMARK    2  A    between atoms: C2_11  and  C4_9 
REMARK    3  A    between atoms: C1_13  and  C2_11 
ROOT
HETATM    1  C8  MCO  5085       1.207  36.229 236.916  1.00 20.00     0.188 C 
HETATM    2  C7  MCO  5085       0.986  37.700 237.273  1.00 20.00     0.038 C 
HETATM    3  C6  MCO  5085      -0.347  38.068 236.611  1.00 20.00     0.022 C 
HETATM    4  C5  MCO  5085      -1.195  36.796 236.700  1.00 20.00     0.127 C 
HETATM    5  N   MCO  5085      -0.182  35.724 236.837  1.00 20.00    -0.337 N 
HETATM    6  C4  MCO  5085      -0.509  34.423 236.998  1.00 20.00     0.225 C 
HETATM    7  O1  MCO  5085       0.376  33.590 237.200  1.00 20.00    -0.273 OA
ENDROOT
BRANCH   6   8
HETATM    8  C2  MCO  5085      -1.977  33.990 236.911  1.00 20.00     0.084 C 
HETATM    9  C3  MCO  5085      -2.426  33.468 238.281  1.00 20.00     0.020 C 
BRANCH   8  10
HETATM   10  C1  MCO  5085      -2.145  32.913 235.838  1.00 20.00     0.099 C 
HETATM   11  S   MCO  5085      -1.693  33.519 234.175  1.00 20.00    -0.097 SA
ENDBRANCH   8  10
ENDBRANCH   6   8
BRANCH   1  12
HETATM   12  C9  MCO  5085       1.874  36.111 235.526  1.00 20.00     0.196 C 
HETATM   13  O3  MCO  5085       2.393  35.016 235.235  1.00 20.00    -0.646 OA
HETATM   14  O2  MCO  5085       1.847  37.125 234.793  1.00 20.00    -0.646 OA
ENDBRANCH   1  12
TORSDOF 3
ENDMDL
MODEL 9
REMARK VINA RESULT:      -4.5     10.419     11.521
REMARK  3 active torsions:
REMARK  status: ('A' for Active; 'I' for Inactive)
REMARK    1  A    between atoms: C8_4  and  C9_2 
REMARK       I    between atoms: C4_9  and  N_8 
REMARK    2  A    between atoms: C2_11  and  C4_9 
REMARK    3  A    between atoms: C1_13  and  C2_11 
ROOT
HETATM    1  C8  MCO  5085       3.575  36.508 236.765  1.00 20.00     0.188 C 
HETATM    2  C7  MCO  5085       4.191  37.560 237.687  1.00 20.00     0.038 C 
HETATM    3  C6  MCO  5085       3.857  37.082 239.105  1.00 20.00     0.022 C 
HETATM    4  C5  MCO  5085       3.906  35.553 239.026  1.00 20.00     0.127 C 
HETATM    5  N   MCO  5085       3.681  35.283 237.587  1.00 20.00    -0.337 N 
HETATM    6  C4  MCO  5085       3.697  34.037 237.066  1.00 20.00     0.225 C 
HETATM    7  O1  MCO  5085       3.597  33.882 235.847  1.00 20.00    -0.273 OA
ENDROOT
BRANCH   6   8
HETATM    8  C2  MCO  5085       3.822  32.823 237.994  1.00 20.00     0.084 C 
HETATM    9  C3  MCO  5085       4.794  31.814 237.370  1.00 20.00     0.020 C 
BRANCH   8  10
HETATM   10  C1  MCO  5085       2.448  32.187 238.216  1.00 20.00     0.099 C 
HETATM   11  S   MCO  5085       2.089  31.920 239.987  1.00 20.00    -0.097 SA
ENDBRANCH   8  10
ENDBRANCH   6   8
BRANCH   1  12
HETATM   12  C9  MCO  5085       2.084  36.826 236.511  1.00 20.00     0.196 C 
HETATM   13  O3  MCO  5085       1.243  36.135 237.120  1.00 20.00    -0.646 OA
HETATM   14  O2  MCO  5085       1.827  37.753 235.710  1.00 20.00    -0.646 OA
ENDBRANCH   1  12
TORSDOF 3
ENDMDL
