MODEL 1
REMARK VINA RESULT:      -7.1      0.000      0.000
REMARK  6 active torsions:
REMARK  status: ('A' for Active; 'I' for Inactive)
REMARK    1  A    between atoms: C2_3  and  C21_4 
REMARK       I    between atoms: C21_4  and  N21_6 
REMARK    2  A    between atoms: C4_11  and  N4_12 
REMARK    3  A    between atoms: C6_18  and  O6_20 
REMARK    4  A    between atoms: C10_26  and  O10_27 
REMARK    5  A    between atoms: C12_33  and  O12_34 
REMARK    6  A    between atoms: C1C_36  and  O1C_37 
ROOT
HETATM    1  C1  TAC  7101      -1.432  35.224 234.615  1.00 20.00     0.210 C 
HETATM    2  O1  TAC  7101      -2.079  35.926 235.435  1.00 20.00    -0.288 OA
HETATM    3  C2  TAC  7101      -2.063  34.054 233.964  1.00 20.00     0.129 C 
HETATM    4  C3  TAC  7101      -1.283  33.214 233.085  1.00 20.00     0.202 C 
HETATM    5  O3  TAC  7101      -1.779  32.188 232.593  1.00 20.00    -0.290 OA
HETATM    6  C4  TAC  7101       0.213  33.533 232.750  1.00 20.00     0.304 C 
HETATM    7  C41 TAC  7101       0.920  34.391 233.826  1.00 20.00     0.077 C 
HETATM    8  C5  TAC  7101       1.194  33.500 235.077  1.00 20.00     0.024 C 
HETATM    9  C51 TAC  7101       2.041  34.178 236.129  1.00 20.00     0.065 C 
HETATM   10  C6  TAC  7101       2.012  33.463 237.509  1.00 20.00     0.090 C 
HETATM   11  C62 TAC  7101       2.227  31.951 237.397  1.00 20.00     0.052 C 
HETATM   12  C61 TAC  7101       3.113  34.205 238.353  1.00 20.00    -0.007 A 
HETATM   13  C7  TAC  7101       4.056  33.512 239.161  1.00 20.00     0.011 A 
HETATM   14  C8  TAC  7101       5.028  34.223 239.887  1.00 20.00     0.003 A 
HETATM   15  C9  TAC  7101       5.090  35.638 239.827  1.00 20.00     0.037 A 
HETATM   16  C10 TAC  7101       4.170  36.370 239.033  1.00 20.00     0.080 A 
HETATM   17  C1A TAC  7101       3.169  35.663 238.283  1.00 20.00     0.057 A 
HETATM   18  C11 TAC  7101       2.222  36.374 237.446  1.00 20.00     0.194 C 
HETATM   19  O11 TAC  7101       1.940  37.589 237.696  1.00 20.00    -0.287 OA
HETATM   20  C1B TAC  7101       1.633  35.697 236.340  1.00 20.00     0.033 C 
HETATM   21  C12 TAC  7101       0.717  36.366 235.461  1.00 20.00     0.097 C 
HETATM   22  C1C TAC  7101       0.039  35.647 234.259  1.00 20.00     0.177 C 
ENDROOT
BRANCH   3  23
HETATM   23  C21 TAC  7101      -3.491  33.697 234.256  1.00 20.00     0.256 C 
HETATM   24  N21 TAC  7101      -3.730  32.642 235.061  1.00 20.00    -0.366 N 
ATOM     25 2H21 TAC  7101      -2.963  32.107 235.468  1.00  0.00     0.159 HD
ATOM     26 1H21 TAC  7101      -4.701  32.400 235.260  1.00  0.00     0.159 HD
HETATM   27  O21 TAC  7101      -4.447  34.363 233.749  1.00 20.00    -0.268 OA
ENDBRANCH   3  23
BRANCH  22  28
HETATM   28  O1C TAC  7101      -0.029  36.568 233.176  1.00 20.00    -0.374 OA
ATOM     29  H1C TAC  7101       0.707  37.162 233.258  1.00  0.00     0.211 HD
ENDBRANCH  22  28
BRANCH   6  30
HETATM   30  N4  TAC  7101       0.254  33.836 231.268  1.00 20.00     0.092 N 
HETATM   31  C42 TAC  7101       1.302  34.820 230.848  1.00 20.00     0.310 C 
HETATM   32  C43 TAC  7101       0.507  32.565 230.520  1.00 20.00     0.310 C 
ENDBRANCH   6  30
BRANCH  21  33
HETATM   33  O12 TAC  7101       0.405  37.661 235.659  1.00 20.00    -0.361 OA
ATOM     34  H12 TAC  7101      -0.500  37.915 235.524  1.00  0.00     0.217 HD
ENDBRANCH  21  33
BRANCH  10  35
HETATM   35  O6  TAC  7101       0.718  33.661 238.124  1.00 20.00    -0.385 OA
ATOM     36  H6  TAC  7101       0.757  33.391 239.034  1.00  0.00     0.211 HD
ENDBRANCH  10  35
BRANCH  16  37
HETATM   37  O10 TAC  7101       4.234  37.744 238.975  1.00 20.00    -0.360 OA
ATOM     38  H10 TAC  7101       3.456  38.269 239.115  1.00  0.00     0.217 HD
ENDBRANCH  16  37
TORSDOF 6
ENDMDL
MODEL 2
REMARK VINA RESULT:      -7.0      2.208      4.251
REMARK  6 active torsions:
REMARK  status: ('A' for Active; 'I' for Inactive)
REMARK    1  A    between atoms: C2_3  and  C21_4 
REMARK       I    between atoms: C21_4  and  N21_6 
REMARK    2  A    between atoms: C4_11  and  N4_12 
REMARK    3  A    between atoms: C6_18  and  O6_20 
REMARK    4  A    between atoms: C10_26  and  O10_27 
REMARK    5  A    between atoms: C12_33  and  O12_34 
REMARK    6  A    between atoms: C1C_36  and  O1C_37 
ROOT
HETATM    1  C1  TAC  7101      -0.590  34.697 231.931  1.00 20.00     0.210 C 
HETATM    2  O1  TAC  7101       0.461  34.524 231.262  1.00 20.00    -0.288 OA
HETATM    3  C2  TAC  7101      -1.659  35.594 231.435  1.00 20.00     0.129 C 
HETATM    4  C3  TAC  7101      -2.825  35.841 232.251  1.00 20.00     0.202 C 
HETATM    5  O3  TAC  7101      -3.692  36.649 231.881  1.00 20.00    -0.290 OA
HETATM    6  C4  TAC  7101      -3.026  35.142 233.638  1.00 20.00     0.304 C 
HETATM    7  C41 TAC  7101      -1.705  34.684 234.299  1.00 20.00     0.077 C 
HETATM    8  C5  TAC  7101      -0.948  35.941 234.830  1.00 20.00     0.024 C 
HETATM    9  C51 TAC  7101       0.273  35.608 235.655  1.00 20.00     0.065 C 
HETATM   10  C6  TAC  7101       1.227  36.816 235.873  1.00 20.00     0.090 C 
HETATM   11  C62 TAC  7101       0.487  38.082 236.315  1.00 20.00     0.052 C 
HETATM   12  C61 TAC  7101       2.282  36.293 236.918  1.00 20.00    -0.007 A 
HETATM   13  C7  TAC  7101       2.705  37.069 238.033  1.00 20.00     0.011 A 
HETATM   14  C8  TAC  7101       3.642  36.550 238.944  1.00 20.00     0.003 A 
HETATM   15  C9  TAC  7101       4.180  35.249 238.773  1.00 20.00     0.037 A 
HETATM   16  C10 TAC  7101       3.785  34.441 237.676  1.00 20.00     0.080 A 
HETATM   17  C1A TAC  7101       2.828  34.952 236.733  1.00 20.00     0.057 A 
HETATM   18  C11 TAC  7101       2.386  34.150 235.609  1.00 20.00     0.194 C 
HETATM   19  O11 TAC  7101       3.128  33.218 235.162  1.00 20.00    -0.287 OA
HETATM   20  C1B TAC  7101       1.111  34.412 235.032  1.00 20.00     0.033 C 
HETATM   21  C12 TAC  7101       0.611  33.625 233.941  1.00 20.00     0.097 C 
HETATM   22  C1C TAC  7101      -0.767  33.901 233.274  1.00 20.00     0.177 C 
ENDROOT
BRANCH   3  23
HETATM   23  C21 TAC  7101      -1.515  36.296 230.118  1.00 20.00     0.256 C 
HETATM   24  N21 TAC  7101      -1.540  37.645 230.110  1.00 20.00    -0.366 N 
ATOM     25 2H21 TAC  7101      -1.646  38.173 230.976  1.00  0.00     0.159 HD
ATOM     26 1H21 TAC  7101      -1.442  38.122 229.214  1.00  0.00     0.159 HD
HETATM   27  O21 TAC  7101      -1.383  35.639 229.039  1.00 20.00    -0.268 OA
ENDBRANCH   3  23
BRANCH  22  28
HETATM   28  O1C TAC  7101      -1.363  32.648 232.957  1.00 20.00    -0.374 OA
ATOM     29  H1C TAC  7101      -2.222  32.823 232.591  1.00  0.00     0.211 HD
ENDBRANCH  22  28
BRANCH   6  30
HETATM   30  N4  TAC  7101      -4.246  34.258 233.488  1.00 20.00     0.092 N 
HETATM   31  C42 TAC  7101      -4.349  33.534 232.180  1.00 20.00     0.310 C 
HETATM   32  C43 TAC  7101      -4.233  33.227 234.572  1.00 20.00     0.310 C 
ENDBRANCH   6  30
BRANCH  21  33
HETATM   33  O12 TAC  7101       1.341  32.605 233.447  1.00 20.00    -0.361 OA
ATOM     34  H12 TAC  7101       1.828  32.768 232.648  1.00  0.00     0.217 HD
ENDBRANCH  21  33
BRANCH  10  35
HETATM   35  O6  TAC  7101       1.895  37.130 234.630  1.00 20.00    -0.385 OA
ATOM     36  H6  TAC  7101       2.683  37.629 234.812  1.00  0.00     0.211 HD
ENDBRANCH  10  35
BRANCH  16  37
HETATM   37  O10 TAC  7101       4.307  33.178 237.514  1.00 20.00    -0.360 OA
ATOM     38  H10 TAC  7101       5.170  32.966 237.850  1.00  0.00     0.217 HD
ENDBRANCH  16  37
TORSDOF 6
ENDMDL
MODEL 3
REMARK VINA RESULT:      -7.0      2.012      4.289
REMARK  6 active torsions:
REMARK  status: ('A' for Active; 'I' for Inactive)
REMARK    1  A    between atoms: C2_3  and  C21_4 
REMARK       I    between atoms: C21_4  and  N21_6 
REMARK    2  A    between atoms: C4_11  and  N4_12 
REMARK    3  A    between atoms: C6_18  and  O6_20 
REMARK    4  A    between atoms: C10_26  and  O10_27 
REMARK    5  A    between atoms: C12_33  and  O12_34 
REMARK    6  A    between atoms: C1C_36  and  O1C_37 
ROOT
HETATM    1  C1  TAC  7101       0.739  33.749 234.382  1.00 20.00     0.210 C 
HETATM    2  O1  TAC  7101       1.545  32.914 233.897  1.00 20.00    -0.288 OA
HETATM    3  C2  TAC  7101       0.142  34.802 233.528  1.00 20.00     0.129 C 
HETATM    4  C3  TAC  7101      -0.721  35.799 234.116  1.00 20.00     0.202 C 
HETATM    5  O3  TAC  7101      -1.167  36.730 233.427  1.00 20.00    -0.290 OA
HETATM    6  C4  TAC  7101      -1.096  35.775 235.637  1.00 20.00     0.304 C 
HETATM    7  C41 TAC  7101      -0.064  35.031 236.517  1.00 20.00     0.077 C 
HETATM    8  C5  TAC  7101       1.212  35.917 236.653  1.00 20.00     0.024 C 
HETATM    9  C51 TAC  7101       2.223  35.376 237.637  1.00 20.00     0.065 C 
HETATM   10  C6  TAC  7101       3.629  36.029 237.511  1.00 20.00     0.090 C 
HETATM   11  C62 TAC  7101       3.566  37.557 237.439  1.00 20.00     0.052 C 
HETATM   12  C61 TAC  7101       4.424  35.478 238.752  1.00 20.00    -0.007 A 
HETATM   13  C7  TAC  7101       5.239  36.310 239.570  1.00 20.00     0.011 A 
HETATM   14  C8  TAC  7101       5.920  35.769 240.675  1.00 20.00     0.003 A 
HETATM   15  C9  TAC  7101       5.809  34.393 240.996  1.00 20.00     0.037 A 
HETATM   16  C10 TAC  7101       5.007  33.528 240.208  1.00 20.00     0.080 A 
HETATM   17  C1A TAC  7101       4.302  34.060 239.075  1.00 20.00     0.057 A 
HETATM   18  C11 TAC  7101       3.458  33.211 238.256  1.00 20.00     0.194 C 
HETATM   19  O11 TAC  7101       3.670  31.957 238.210  1.00 20.00    -0.287 OA
HETATM   20  C1B TAC  7101       2.388  33.801 237.524  1.00 20.00     0.033 C 
HETATM   21  C12 TAC  7101       1.503  33.002 236.726  1.00 20.00     0.097 C 
HETATM   22  C1C TAC  7101       0.340  33.619 235.896  1.00 20.00     0.177 C 
ENDROOT
BRANCH   3  23
HETATM   23  C21 TAC  7101       0.473  34.877 232.067  1.00 20.00     0.256 C 
HETATM   24  N21 TAC  7101      -0.483  34.532 231.180  1.00 20.00    -0.366 N 
ATOM     25 2H21 TAC  7101      -1.408  34.238 231.493  1.00  0.00     0.159 HD
ATOM     26 1H21 TAC  7101      -0.258  34.584 230.187  1.00  0.00     0.159 HD
HETATM   27  O21 TAC  7101       1.625  35.243 231.677  1.00 20.00    -0.268 OA
ENDBRANCH   3  23
BRANCH  22  28
HETATM   28  O1C TAC  7101      -0.773  32.736 235.973  1.00 20.00    -0.374 OA
ATOM     29  H1C TAC  7101      -0.658  32.195 236.744  1.00  0.00     0.211 HD
ENDBRANCH  22  28
BRANCH   6  30
HETATM   30  N4  TAC  7101      -2.588  35.532 235.696  1.00 20.00     0.092 N 
HETATM   31  C42 TAC  7101      -3.091  34.440 234.802  1.00 20.00     0.310 C 
HETATM   32  C43 TAC  7101      -2.965  35.172 237.098  1.00 20.00     0.310 C 
ENDBRANCH   6  30
BRANCH  21  33
HETATM   33  O12 TAC  7101       1.660  31.665 236.664  1.00 20.00    -0.361 OA
ATOM     34  H12 TAC  7101       2.106  31.315 235.902  1.00  0.00     0.217 HD
ENDBRANCH  21  33
BRANCH  10  35
HETATM   35  O6  TAC  7101       4.260  35.574 236.292  1.00 20.00    -0.385 OA
ATOM     36  H6  TAC  7101       4.026  34.667 236.135  1.00  0.00     0.211 HD
ENDBRANCH  10  35
BRANCH  16  37
HETATM   37  O10 TAC  7101       4.899  32.193 240.525  1.00 20.00    -0.360 OA
ATOM     38  H10 TAC  7101       5.473  31.553 240.120  1.00  0.00     0.217 HD
ENDBRANCH  16  37
TORSDOF 6
ENDMDL
MODEL 4
REMARK VINA RESULT:      -6.7      2.442      3.439
REMARK  6 active torsions:
REMARK  status: ('A' for Active; 'I' for Inactive)
REMARK    1  A    between atoms: C2_3  and  C21_4 
REMARK       I    between atoms: C21_4  and  N21_6 
REMARK    2  A    between atoms: C4_11  and  N4_12 
REMARK    3  A    between atoms: C6_18  and  O6_20 
REMARK    4  A    between atoms: C10_26  and  O10_27 
REMARK    5  A    between atoms: C12_33  and  O12_34 
REMARK    6  A    between atoms: C1C_36  and  O1C_37 
ROOT
HETATM    1  C1  TAC  7101      -2.741  35.039 231.812  1.00 20.00     0.210 C 
HETATM    2  O1  TAC  7101      -3.505  35.190 232.800  1.00 20.00    -0.288 OA
HETATM    3  C2  TAC  7101      -3.110  34.125 230.708  1.00 20.00     0.129 C 
HETATM    4  C3  TAC  7101      -2.187  33.904 229.619  1.00 20.00     0.202 C 
HETATM    5  O3  TAC  7101      -2.452  33.083 228.726  1.00 20.00    -0.290 OA
HETATM    6  C4  TAC  7101      -0.812  34.649 229.537  1.00 20.00     0.304 C 
HETATM    7  C41 TAC  7101      -0.286  35.131 230.910  1.00 20.00     0.077 C 
HETATM    8  C5  TAC  7101       0.219  33.894 231.715  1.00 20.00     0.024 C 
HETATM    9  C51 TAC  7101       0.922  34.256 233.003  1.00 20.00     0.065 C 
HETATM   10  C6  TAC  7101       1.096  33.057 233.978  1.00 20.00     0.090 C 
HETATM   11  C62 TAC  7101       1.644  31.806 233.284  1.00 20.00     0.052 C 
HETATM   12  C61 TAC  7101       2.026  33.616 235.117  1.00 20.00    -0.007 A 
HETATM   13  C7  TAC  7101       3.125  32.879 235.640  1.00 20.00     0.011 A 
HETATM   14  C8  TAC  7101       3.932  33.430 236.651  1.00 20.00     0.003 A 
HETATM   15  C9  TAC  7101       3.671  34.724 237.166  1.00 20.00     0.037 A 
HETATM   16  C10 TAC  7101       2.586  35.494 236.673  1.00 20.00     0.080 A 
HETATM   17  C1A TAC  7101       1.749  34.951 235.640  1.00 20.00     0.057 A 
HETATM   18  C11 TAC  7101       0.642  35.714 235.098  1.00 20.00     0.194 C 
HETATM   19  O11 TAC  7101       0.100  36.631 235.794  1.00 20.00    -0.287 OA
HETATM   20  C1B TAC  7101       0.188  35.431 233.778  1.00 20.00     0.033 C 
HETATM   21  C12 TAC  7101      -0.881  36.180 233.182  1.00 20.00     0.097 C 
HETATM   22  C1C TAC  7101      -1.415  35.880 231.751  1.00 20.00     0.177 C 
ENDROOT
BRANCH   3  23
HETATM   23  C21 TAC  7101      -4.411  33.378 230.739  1.00 20.00     0.256 C 
HETATM   24  N21 TAC  7101      -4.619  32.507 231.747  1.00 20.00    -0.366 N 
ATOM     25 2H21 TAC  7101      -3.917  32.365 232.473  1.00  0.00     0.159 HD
ATOM     26 1H21 TAC  7101      -5.504  32.000 231.769  1.00  0.00     0.159 HD
HETATM   27  O21 TAC  7101      -5.286  33.554 229.835  1.00 20.00    -0.268 OA
ENDBRANCH   3  23
BRANCH  22  28
HETATM   28  O1C TAC  7101      -1.720  37.120 231.125  1.00 20.00    -0.374 OA
ATOM     29  H1C TAC  7101      -1.000  37.335 230.545  1.00  0.00     0.211 HD
ENDBRANCH  22  28
BRANCH   6  30
HETATM   30  N4  TAC  7101      -0.885  35.527 228.306  1.00 20.00     0.092 N 
HETATM   31  C42 TAC  7101      -2.146  36.322 228.165  1.00 20.00     0.310 C 
HETATM   32  C43 TAC  7101       0.255  36.495 228.334  1.00 20.00     0.310 C 
ENDBRANCH   6  30
BRANCH  21  33
HETATM   33  O12 TAC  7101      -1.472  37.183 233.860  1.00 20.00    -0.361 OA
ATOM     34  H12 TAC  7101      -1.984  36.947 234.624  1.00  0.00     0.217 HD
ENDBRANCH  21  33
BRANCH  10  35
HETATM   35  O6  TAC  7101      -0.190  32.702 234.535  1.00 20.00    -0.385 OA
ATOM     36  H6  TAC  7101      -0.663  33.493 234.767  1.00  0.00     0.211 HD
ENDBRANCH  10  35
BRANCH  16  37
HETATM   37  O10 TAC  7101       2.337  36.752 237.174  1.00 20.00    -0.360 OA
ATOM     38  H10 TAC  7101       1.445  37.056 237.292  1.00  0.00     0.217 HD
ENDBRANCH  16  37
TORSDOF 6
ENDMDL
MODEL 5
REMARK VINA RESULT:      -6.6      2.736      4.275
REMARK  6 active torsions:
REMARK  status: ('A' for Active; 'I' for Inactive)
REMARK    1  A    between atoms: C2_3  and  C21_4 
REMARK       I    between atoms: C21_4  and  N21_6 
REMARK    2  A    between atoms: C4_11  and  N4_12 
REMARK    3  A    between atoms: C6_18  and  O6_20 
REMARK    4  A    between atoms: C10_26  and  O10_27 
REMARK    5  A    between atoms: C12_33  and  O12_34 
REMARK    6  A    between atoms: C1C_36  and  O1C_37 
ROOT
HETATM    1  C1  TAC  7101      -1.613  33.665 230.613  1.00 20.00     0.210 C 
HETATM    2  O1  TAC  7101      -2.757  33.629 231.134  1.00 20.00    -0.288 OA
HETATM    3  C2  TAC  7101      -1.069  32.481 229.909  1.00 20.00     0.129 C 
HETATM    4  C3  TAC  7101       0.276  32.514 229.382  1.00 20.00     0.202 C 
HETATM    5  O3  TAC  7101       0.770  31.504 228.857  1.00 20.00    -0.290 OA
HETATM    6  C4  TAC  7101       1.172  33.794 229.484  1.00 20.00     0.304 C 
HETATM    7  C41 TAC  7101       0.773  34.739 230.642  1.00 20.00     0.077 C 
HETATM    8  C5  TAC  7101       1.215  34.093 231.992  1.00 20.00     0.024 C 
HETATM    9  C51 TAC  7101       1.040  35.004 233.185  1.00 20.00     0.065 C 
HETATM   10  C6  TAC  7101       1.119  34.266 234.551  1.00 20.00     0.090 C 
HETATM   11  C62 TAC  7101       2.322  33.321 234.643  1.00 20.00     0.052 C 
HETATM   12  C61 TAC  7101       1.132  35.424 235.616  1.00 20.00    -0.007 A 
HETATM   13  C7  TAC  7101       2.019  35.432 236.729  1.00 20.00     0.011 A 
HETATM   14  C8  TAC  7101       1.998  36.497 237.646  1.00 20.00     0.003 A 
HETATM   15  C9  TAC  7101       1.098  37.580 237.482  1.00 20.00     0.037 A 
HETATM   16  C10 TAC  7101       0.197  37.614 236.387  1.00 20.00     0.080 A 
HETATM   17  C1A TAC  7101       0.203  36.535 235.437  1.00 20.00     0.057 A 
HETATM   18  C11 TAC  7101      -0.691  36.542 234.295  1.00 20.00     0.194 C 
HETATM   19  O11 TAC  7101      -1.776  37.205 234.340  1.00 20.00    -0.287 OA
HETATM   20  C1B TAC  7101      -0.326  35.812 233.128  1.00 20.00     0.033 C 
HETATM   21  C12 TAC  7101      -1.158  35.813 231.959  1.00 20.00     0.097 C 
HETATM   22  C1C TAC  7101      -0.798  35.007 230.677  1.00 20.00     0.177 C 
ENDROOT
BRANCH   3  23
HETATM   23  C21 TAC  7101      -1.881  31.226 229.789  1.00 20.00     0.256 C 
HETATM   24  N21 TAC  7101      -1.562  30.185 230.585  1.00 20.00    -0.366 N 
ATOM     25 2H21 TAC  7101      -0.796  30.251 231.255  1.00  0.00     0.159 HD
ATOM     26 1H21 TAC  7101      -2.114  29.331 230.504  1.00  0.00     0.159 HD
HETATM   27  O21 TAC  7101      -2.835  31.142 228.955  1.00 20.00    -0.268 OA
ENDBRANCH   3  23
BRANCH  22  28
HETATM   28  O1C TAC  7101      -1.166  35.789 229.547  1.00 20.00    -0.374 OA
ATOM     29  H1C TAC  7101      -0.807  35.367 228.776  1.00  0.00     0.211 HD
ENDBRANCH  22  28
BRANCH   6  30
HETATM   30  N4  TAC  7101       1.407  34.254 228.062  1.00 20.00     0.092 N 
HETATM   31  C42 TAC  7101       0.189  34.276 227.190  1.00 20.00     0.310 C 
HETATM   32  C43 TAC  7101       1.965  35.642 228.088  1.00 20.00     0.310 C 
ENDBRANCH   6  30
BRANCH  21  33
HETATM   33  O12 TAC  7101      -2.303  36.523 231.938  1.00 20.00    -0.361 OA
ATOM     34  H12 TAC  7101      -2.842  36.454 231.160  1.00  0.00     0.217 HD
ENDBRANCH  21  33
BRANCH  10  35
HETATM   35  O6  TAC  7101      -0.067  33.459 234.729  1.00 20.00    -0.385 OA
ATOM     36  H6  TAC  7101      -0.127  33.183 235.636  1.00  0.00     0.211 HD
ENDBRANCH  10  35
BRANCH  16  37
HETATM   37  O10 TAC  7101      -0.674  38.669 236.229  1.00 20.00    -0.360 OA
ATOM     38  H10 TAC  7101      -0.914  38.970 235.361  1.00  0.00     0.217 HD
ENDBRANCH  16  37
TORSDOF 6
ENDMDL
MODEL 6
REMARK VINA RESULT:      -6.4      2.670      7.322
REMARK  6 active torsions:
REMARK  status: ('A' for Active; 'I' for Inactive)
REMARK    1  A    between atoms: C2_3  and  C21_4 
REMARK       I    between atoms: C21_4  and  N21_6 
REMARK    2  A    between atoms: C4_11  and  N4_12 
REMARK    3  A    between atoms: C6_18  and  O6_20 
REMARK    4  A    between atoms: C10_26  and  O10_27 
REMARK    5  A    between atoms: C12_33  and  O12_34 
REMARK    6  A    between atoms: C1C_36  and  O1C_37 
ROOT
HETATM    1  C1  TAC  7101       1.265  35.851 235.997  1.00 20.00     0.210 C 
HETATM    2  O1  TAC  7101       1.600  37.013 235.652  1.00 20.00    -0.288 OA
HETATM    3  C2  TAC  7101       2.238  34.952 236.660  1.00 20.00     0.129 C 
HETATM    4  C3  TAC  7101       1.859  33.595 236.979  1.00 20.00     0.202 C 
HETATM    5  O3  TAC  7101       2.688  32.809 237.466  1.00 20.00    -0.290 OA
HETATM    6  C4  TAC  7101       0.419  33.050 236.694  1.00 20.00     0.304 C 
HETATM    7  C41 TAC  7101      -0.321  33.813 235.570  1.00 20.00     0.077 C 
HETATM    8  C5  TAC  7101       0.305  33.417 234.197  1.00 20.00     0.024 C 
HETATM    9  C51 TAC  7101      -0.451  33.962 233.008  1.00 20.00     0.065 C 
HETATM   10  C6  TAC  7101       0.349  33.894 231.676  1.00 20.00     0.090 C 
HETATM   11  C62 TAC  7101       0.998  32.526 231.445  1.00 20.00     0.052 C 
HETATM   12  C61 TAC  7101      -0.699  34.300 230.574  1.00 20.00    -0.007 A 
HETATM   13  C7  TAC  7101      -0.827  33.598 229.344  1.00 20.00     0.011 A 
HETATM   14  C8  TAC  7101      -1.788  33.995 228.397  1.00 20.00     0.003 A 
HETATM   15  C9  TAC  7101      -2.646  35.095 228.648  1.00 20.00     0.037 A 
HETATM   16  C10 TAC  7101      -2.554  35.822 229.863  1.00 20.00     0.080 A 
HETATM   17  C1A TAC  7101      -1.579  35.433 230.844  1.00 20.00     0.057 A 
HETATM   18  C11 TAC  7101      -1.465  36.141 232.105  1.00 20.00     0.194 C 
HETATM   19  O11 TAC  7101      -1.858  37.348 232.194  1.00 20.00    -0.287 OA
HETATM   20  C1B TAC  7101      -0.927  35.460 233.233  1.00 20.00     0.033 C 
HETATM   21  C12 TAC  7101      -0.825  36.103 234.512  1.00 20.00     0.097 C 
HETATM   22  C1C TAC  7101      -0.219  35.393 235.758  1.00 20.00     0.177 C 
ENDROOT
BRANCH   3  23
HETATM   23  C21 TAC  7101       3.633  35.420 236.949  1.00 20.00     0.256 C 
HETATM   24  N21 TAC  7101       4.434  35.713 235.905  1.00 20.00    -0.366 N 
ATOM     25 2H21 TAC  7101       4.099  35.627 234.945  1.00  0.00     0.159 HD
ATOM     26 1H21 TAC  7101       5.383  36.031 236.101  1.00  0.00     0.159 HD
HETATM   27  O21 TAC  7101       4.051  35.526 238.144  1.00 20.00    -0.268 OA
ENDBRANCH   3  23
BRANCH  22  28
HETATM   28  O1C TAC  7101      -0.978  35.781 236.898  1.00 20.00    -0.374 OA
ATOM     29  H1C TAC  7101      -1.187  36.702 236.804  1.00  0.00     0.211 HD
ENDBRANCH  22  28
BRANCH   6  30
HETATM   30  N4  TAC  7101      -0.187  32.741 238.046  1.00 20.00     0.092 N 
HETATM   31  C42 TAC  7101      -1.673  32.904 238.129  1.00 20.00     0.310 C 
HETATM   32  C43 TAC  7101       0.130  31.324 238.405  1.00 20.00     0.310 C 
ENDBRANCH   6  30
BRANCH  21  33
HETATM   33  O12 TAC  7101      -1.253  37.370 234.674  1.00 20.00    -0.361 OA
ATOM     34  H12 TAC  7101      -0.667  38.064 234.400  1.00  0.00     0.217 HD
ENDBRANCH  21  33
BRANCH  10  35
HETATM   35  O6  TAC  7101       1.417  34.869 231.708  1.00 20.00    -0.385 OA
ATOM     36  H6  TAC  7101       1.133  35.632 232.199  1.00  0.00     0.211 HD
ENDBRANCH  10  35
BRANCH  16  37
HETATM   37  O10 TAC  7101      -3.390  36.888 230.105  1.00 20.00    -0.360 OA
ATOM     38  H10 TAC  7101      -3.344  37.361 230.928  1.00  0.00     0.217 HD
ENDBRANCH  16  37
TORSDOF 6
ENDMDL
MODEL 7
REMARK VINA RESULT:      -6.3      5.388      9.827
REMARK  6 active torsions:
REMARK  status: ('A' for Active; 'I' for Inactive)
REMARK    1  A    between atoms: C2_3  and  C21_4 
REMARK       I    between atoms: C21_4  and  N21_6 
REMARK    2  A    between atoms: C4_11  and  N4_12 
REMARK    3  A    between atoms: C6_18  and  O6_20 
REMARK    4  A    between atoms: C10_26  and  O10_27 
REMARK    5  A    between atoms: C12_33  and  O12_34 
REMARK    6  A    between atoms: C1C_36  and  O1C_37 
ROOT
HETATM    1  C1  TAC  7101      -1.932  35.587 231.148  1.00 20.00     0.210 C 
HETATM    2  O1  TAC  7101      -3.002  35.974 231.683  1.00 20.00    -0.288 OA
HETATM    3  C2  TAC  7101      -0.703  35.421 231.958  1.00 20.00     0.129 C 
HETATM    4  C3  TAC  7101       0.536  35.050 231.314  1.00 20.00     0.202 C 
HETATM    5  O3  TAC  7101       1.588  34.982 231.969  1.00 20.00    -0.290 OA
HETATM    6  C4  TAC  7101       0.615  34.761 229.777  1.00 20.00     0.304 C 
HETATM    7  C41 TAC  7101      -0.504  35.448 228.959  1.00 20.00     0.077 C 
HETATM    8  C5  TAC  7101      -0.200  36.976 228.878  1.00 20.00     0.024 C 
HETATM    9  C51 TAC  7101      -1.127  37.729 227.953  1.00 20.00     0.065 C 
HETATM   10  C6  TAC  7101      -1.080  39.272 228.142  1.00 20.00     0.090 C 
HETATM   11  C62 TAC  7101       0.350  39.818 228.193  1.00 20.00     0.052 C 
HETATM   12  C61 TAC  7101      -1.939  39.835 226.950  1.00 20.00    -0.007 A 
HETATM   13  C7  TAC  7101      -1.523  40.945 226.164  1.00 20.00     0.011 A 
HETATM   14  C8  TAC  7101      -2.323  41.402 225.101  1.00 20.00     0.003 A 
HETATM   15  C9  TAC  7101      -3.552  40.767 224.791  1.00 20.00     0.037 A 
HETATM   16  C10 TAC  7101      -4.005  39.656 225.548  1.00 20.00     0.080 A 
HETATM   17  C1A TAC  7101      -3.202  39.173 226.638  1.00 20.00     0.057 A 
HETATM   18  C11 TAC  7101      -3.621  38.028 227.423  1.00 20.00     0.194 C 
HETATM   19  O11 TAC  7101      -4.855  37.723 227.495  1.00 20.00    -0.287 OA
HETATM   20  C1B TAC  7101      -2.634  37.251 228.093  1.00 20.00     0.033 C 
HETATM   21  C12 TAC  7101      -2.993  36.089 228.855  1.00 20.00     0.097 C 
HETATM   22  C1C TAC  7101      -1.940  35.233 229.617  1.00 20.00     0.177 C 
ENDROOT
BRANCH   3  23
HETATM   23  C21 TAC  7101      -0.720  35.694 233.433  1.00 20.00     0.256 C 
HETATM   24  N21 TAC  7101      -0.044  36.769 233.888  1.00 20.00    -0.366 N 
ATOM     25 2H21 TAC  7101       0.457  37.384 233.247  1.00  0.00     0.159 HD
ATOM     26 1H21 TAC  7101      -0.055  36.954 234.891  1.00  0.00     0.159 HD
HETATM   27  O21 TAC  7101      -1.343  34.927 234.231  1.00 20.00    -0.268 OA
ENDBRANCH   3  23
BRANCH  22  28
HETATM   28  O1C TAC  7101      -2.312  33.865 229.494  1.00 20.00    -0.374 OA
ATOM     29  H1C TAC  7101      -1.980  33.550 228.663  1.00  0.00     0.211 HD
ENDBRANCH  22  28
BRANCH   6  30
HETATM   30  N4  TAC  7101       0.980  33.298 229.646  1.00 20.00     0.092 N 
HETATM   31  C42 TAC  7101       0.212  32.368 230.534  1.00 20.00     0.310 C 
HETATM   32  C43 TAC  7101       0.744  32.865 228.233  1.00 20.00     0.310 C 
ENDBRANCH   6  30
BRANCH  21  33
HETATM   33  O12 TAC  7101      -4.280  35.700 228.940  1.00 20.00    -0.361 OA
ATOM     34  H12 TAC  7101      -4.491  35.038 229.587  1.00  0.00     0.217 HD
ENDBRANCH  21  33
BRANCH  10  35
HETATM   35  O6  TAC  7101      -1.710  39.620 229.397  1.00 20.00    -0.385 OA
ATOM     36  H6  TAC  7101      -1.054  39.955 229.997  1.00  0.00     0.211 HD
ENDBRANCH  10  35
BRANCH  16  37
HETATM   37  O10 TAC  7101      -5.197  39.040 225.242  1.00 20.00    -0.360 OA
ATOM     38  H10 TAC  7101      -5.731  38.655 225.928  1.00  0.00     0.217 HD
ENDBRANCH  16  37
TORSDOF 6
ENDMDL
MODEL 8
REMARK VINA RESULT:      -6.2      1.939      4.129
REMARK  6 active torsions:
REMARK  status: ('A' for Active; 'I' for Inactive)
REMARK    1  A    between atoms: C2_3  and  C21_4 
REMARK       I    between atoms: C21_4  and  N21_6 
REMARK    2  A    between atoms: C4_11  and  N4_12 
REMARK    3  A    between atoms: C6_18  and  O6_20 
REMARK    4  A    between atoms: C10_26  and  O10_27 
REMARK    5  A    between atoms: C12_33  and  O12_34 
REMARK    6  A    between atoms: C1C_36  and  O1C_37 
ROOT
HETATM    1  C1  TAC  7101       0.705  32.837 233.241  1.00 20.00     0.210 C 
HETATM    2  O1  TAC  7101       1.806  32.347 232.882  1.00 20.00    -0.288 OA
HETATM    3  C2  TAC  7101      -0.180  33.503 232.257  1.00 20.00     0.129 C 
HETATM    4  C3  TAC  7101      -1.404  34.128 232.701  1.00 20.00     0.202 C 
HETATM    5  O3  TAC  7101      -2.116  34.754 231.899  1.00 20.00    -0.290 OA
HETATM    6  C4  TAC  7101      -1.862  34.080 234.197  1.00 20.00     0.304 C 
HETATM    7  C41 TAC  7101      -0.698  33.868 235.195  1.00 20.00     0.077 C 
HETATM    8  C5  TAC  7101       0.125  35.190 235.293  1.00 20.00     0.024 C 
HETATM    9  C51 TAC  7101       1.183  35.164 236.372  1.00 20.00     0.065 C 
HETATM   10  C6  TAC  7101       2.236  36.301 236.240  1.00 20.00     0.090 C 
HETATM   11  C62 TAC  7101       1.597  37.674 236.007  1.00 20.00     0.052 C 
HETATM   12  C61 TAC  7101       3.079  36.204 237.565  1.00 20.00    -0.007 A 
HETATM   13  C7  TAC  7101       3.443  37.349 238.327  1.00 20.00     0.011 A 
HETATM   14  C8  TAC  7101       4.188  37.205 239.511  1.00 20.00     0.003 A 
HETATM   15  C9  TAC  7101       4.588  35.925 239.969  1.00 20.00     0.037 A 
HETATM   16  C10 TAC  7101       4.246  34.756 239.240  1.00 20.00     0.080 A 
HETATM   17  C1A TAC  7101       3.484  34.880 238.028  1.00 20.00     0.057 A 
HETATM   18  C11 TAC  7101       3.099  33.709 237.265  1.00 20.00     0.194 C 
HETATM   19  O11 TAC  7101       3.780  32.637 237.359  1.00 20.00    -0.287 OA
HETATM   20  C1B TAC  7101       1.948  33.775 236.430  1.00 20.00     0.033 C 
HETATM   21  C12 TAC  7101       1.505  32.634 235.681  1.00 20.00     0.097 C 
HETATM   22  C1C TAC  7101       0.265  32.682 234.742  1.00 20.00     0.177 C 
ENDROOT
BRANCH   3  23
HETATM   23  C21 TAC  7101       0.214  33.586 230.812  1.00 20.00     0.256 C 
HETATM   24  N21 TAC  7101       1.207  34.433 230.472  1.00 20.00    -0.366 N 
ATOM     25 2H21 TAC  7101       1.683  34.995 231.178  1.00  0.00     0.159 HD
ATOM     26 1H21 TAC  7101       1.474  34.489 229.490  1.00  0.00     0.159 HD
HETATM   27  O21 TAC  7101      -0.379  32.886 229.933  1.00 20.00    -0.268 OA
ENDBRANCH   3  23
BRANCH  22  28
HETATM   28  O1C TAC  7101      -0.426  31.444 234.861  1.00 20.00    -0.374 OA
ATOM     29  H1C TAC  7101      -1.357  31.633 234.865  1.00  0.00     0.211 HD
ENDBRANCH  22  28
BRANCH   6  30
HETATM   30  N4  TAC  7101      -3.146  33.279 234.216  1.00 20.00     0.092 N 
HETATM   31  C42 TAC  7101      -3.418  32.542 235.491  1.00 20.00     0.310 C 
HETATM   32  C43 TAC  7101      -4.297  34.206 233.980  1.00 20.00     0.310 C 
ENDBRANCH   6  30
BRANCH  21  33
HETATM   33  O12 TAC  7101       2.168  31.464 235.766  1.00 20.00    -0.361 OA
ATOM     34  H12 TAC  7101       1.822  30.733 235.268  1.00  0.00     0.217 HD
ENDBRANCH  21  33
BRANCH  10  35
HETATM   35  O6  TAC  7101       3.090  36.034 235.104  1.00 20.00    -0.385 OA
ATOM     36  H6  TAC  7101       3.815  36.648 235.104  1.00  0.00     0.211 HD
ENDBRANCH  10  35
BRANCH  16  37
HETATM   37  O10 TAC  7101       4.633  33.514 239.689  1.00 20.00    -0.360 OA
ATOM     38  H10 TAC  7101       4.497  32.743 239.151  1.00  0.00     0.217 HD
ENDBRANCH  16  37
TORSDOF 6
ENDMDL
MODEL 9
REMARK VINA RESULT:      -6.2      2.751      7.406
REMARK  6 active torsions:
REMARK  status: ('A' for Active; 'I' for Inactive)
REMARK    1  A    between atoms: C2_3  and  C21_4 
REMARK       I    between atoms: C21_4  and  N21_6 
REMARK    2  A    between atoms: C4_11  and  N4_12 
REMARK    3  A    between atoms: C6_18  and  O6_20 
REMARK    4  A    between atoms: C10_26  and  O10_27 
REMARK    5  A    between atoms: C12_33  and  O12_34 
REMARK    6  A    between atoms: C1C_36  and  O1C_37 
ROOT
HETATM    1  C1  TAC  7101      -0.312  33.014 235.686  1.00 20.00     0.210 C 
HETATM    2  O1  TAC  7101      -1.094  32.029 235.675  1.00 20.00    -0.288 OA
HETATM    3  C2  TAC  7101      -0.647  34.232 236.457  1.00 20.00     0.129 C 
HETATM    4  C3  TAC  7101       0.225  35.382 236.397  1.00 20.00     0.202 C 
HETATM    5  O3  TAC  7101      -0.083  36.436 236.978  1.00 20.00    -0.290 OA
HETATM    6  C4  TAC  7101       1.558  35.367 235.576  1.00 20.00     0.304 C 
HETATM    7  C41 TAC  7101       1.566  34.331 234.427  1.00 20.00     0.077 C 
HETATM    8  C5  TAC  7101       0.645  34.849 233.279  1.00 20.00     0.024 C 
HETATM    9  C51 TAC  7101       0.712  34.009 232.024  1.00 20.00     0.065 C 
HETATM   10  C6  TAC  7101      -0.450  34.284 231.027  1.00 20.00     0.090 C 
HETATM   11  C62 TAC  7101      -0.675  35.779 230.781  1.00 20.00     0.052 C 
HETATM   12  C61 TAC  7101      -0.052  33.476 229.737  1.00 20.00    -0.007 A 
HETATM   13  C7  TAC  7101      -0.163  34.020 228.428  1.00 20.00     0.011 A 
HETATM   14  C8  TAC  7101       0.217  33.258 227.308  1.00 20.00     0.003 A 
HETATM   15  C9  TAC  7101       0.718  31.941 227.460  1.00 20.00     0.037 A 
HETATM   16  C10 TAC  7101       0.846  31.359 228.748  1.00 20.00     0.080 A 
HETATM   17  C1A TAC  7101       0.464  32.120 229.905  1.00 20.00     0.057 A 
HETATM   18  C11 TAC  7101       0.597  31.568 231.239  1.00 20.00     0.194 C 
HETATM   19  O11 TAC  7101       0.597  30.306 231.408  1.00 20.00    -0.287 OA
HETATM   20  C1B TAC  7101       0.743  32.455 232.344  1.00 20.00     0.033 C 
HETATM   21  C12 TAC  7101       0.912  31.959 233.680  1.00 20.00     0.097 C 
HETATM   22  C1C TAC  7101       1.050  32.902 234.910  1.00 20.00     0.177 C 
ENDROOT
BRANCH   3  23
HETATM   23  C21 TAC  7101      -1.916  34.305 237.254  1.00 20.00     0.256 C 
HETATM   24  N21 TAC  7101      -2.002  33.570 238.381  1.00 20.00    -0.366 N 
ATOM     25 2H21 TAC  7101      -1.223  32.987 238.689  1.00  0.00     0.159 HD
ATOM     26 1H21 TAC  7101      -2.864  33.619 238.923  1.00  0.00     0.159 HD
HETATM   27  O21 TAC  7101      -2.887  35.030 236.871  1.00 20.00    -0.268 OA
ENDBRANCH   3  23
BRANCH  22  28
HETATM   28  O1C TAC  7101       2.006  32.333 235.797  1.00 20.00    -0.374 OA
ATOM     29  H1C TAC  7101       2.761  32.078 235.280  1.00  0.00     0.211 HD
ENDBRANCH  22  28
BRANCH   6  30
HETATM   30  N4  TAC  7101       2.674  35.513 236.588  1.00 20.00     0.092 N 
HETATM   31  C42 TAC  7101       3.967  34.860 236.209  1.00 20.00     0.310 C 
HETATM   32  C43 TAC  7101       2.951  36.968 236.796  1.00 20.00     0.310 C 
ENDBRANCH   6  30
BRANCH  21  33
HETATM   33  O12 TAC  7101       0.951  30.632 233.914  1.00 20.00    -0.361 OA
ATOM     34  H12 TAC  7101       0.351  30.290 234.566  1.00  0.00     0.217 HD
ENDBRANCH  21  33
BRANCH  10  35
HETATM   35  O6  TAC  7101      -1.681  33.754 231.568  1.00 20.00    -0.385 OA
ATOM     36  H6  TAC  7101      -2.381  34.382 231.434  1.00  0.00     0.211 HD
ENDBRANCH  10  35
BRANCH  16  37
HETATM   37  O10 TAC  7101       1.336  30.081 228.893  1.00 20.00    -0.360 OA
ATOM     38  H10 TAC  7101       1.206  29.435 228.209  1.00  0.00     0.217 HD
ENDBRANCH  16  37
TORSDOF 6
ENDMDL
