MODEL 1
REMARK VINA RESULT:      -7.0      0.000      0.000
REMARK  9 active torsions:
REMARK  status: ('A' for Active; 'I' for Inactive)
REMARK    1  A    between atoms: C10_14  and  O6_16 
REMARK    2  A    between atoms: C16_23  and  O7_24 
REMARK    3  A    between atoms: C27_36  and  O9_37 
REMARK    4  A    between atoms: C28_38  and  O10_39 
REMARK    5  A    between atoms: C34_47  and  C35_48 
REMARK    6  A    between atoms: C35_48  and  C36_49 
REMARK    7  A    between atoms: C36_49  and  C37_50 
REMARK    8  A    between atoms: C39_52  and  O12_53 
REMARK    9  A    between atoms: C40_54  and  O13_55 
ROOT
HETATM    1  C1  RAP  6544       0.573  35.147 228.844  1.00 20.00     0.282 C 
HETATM    2  O1  RAP  6544      -0.788  35.484 229.083  1.00 20.00    -0.314 OA
HETATM    3  O2  RAP  6544       1.224  35.872 228.094  1.00 20.00    -0.263 OA
HETATM    4  C2  RAP  6544       1.243  33.949 229.514  1.00 20.00     0.187 C 
HETATM    5  C3  RAP  6544       2.088  33.167 228.521  1.00 20.00     0.035 C 
HETATM    6  C4  RAP  6544       1.270  32.316 227.560  1.00 20.00     0.004 C 
HETATM    7  C5  RAP  6544       0.372  31.408 228.380  1.00 20.00     0.020 C 
HETATM    8  C6  RAP  6544      -0.520  32.209 229.277  1.00 20.00     0.127 C 
HETATM    9  N7  RAP  6544       0.337  33.002 230.172  1.00 20.00    -0.331 N 
HETATM   10  C8  RAP  6544       0.193  33.014 231.507  1.00 20.00     0.296 C 
HETATM   11  O3  RAP  6544       0.901  33.786 232.167  1.00 20.00    -0.264 OA
HETATM   12  C9  RAP  6544      -0.670  32.133 232.194  1.00 20.00     0.278 C 
HETATM   13  O4  RAP  6544      -0.254  31.013 232.516  1.00 20.00    -0.281 OA
HETATM   14  C10 RAP  6544      -2.114  32.515 232.565  1.00 20.00     0.238 C 
HETATM   15  O5  RAP  6544      -2.848  32.409 231.366  1.00 20.00    -0.343 OA
HETATM   16  C11 RAP  6544      -2.251  33.988 233.129  1.00 20.00     0.053 C 
HETATM   17  C12 RAP  6544      -3.731  34.431 233.186  1.00 20.00     0.013 C 
HETATM   18  C13 RAP  6544      -4.423  34.148 231.861  1.00 20.00     0.033 C 
HETATM   19  C14 RAP  6544      -4.192  32.732 231.343  1.00 20.00     0.128 C 
HETATM   20  C15 RAP  6544      -4.586  32.652 229.879  1.00 20.00     0.068 C 
HETATM   21  C16 RAP  6544      -6.075  32.747 229.566  1.00 20.00     0.152 C 
HETATM   22  C17 RAP  6544      -6.330  32.691 228.074  1.00 20.00    -0.055 C 
HETATM   23  C18 RAP  6544      -6.815  33.770 227.475  1.00 20.00     0.005 C 
HETATM   24  C19 RAP  6544      -7.087  33.878 226.035  1.00 20.00     0.000 C 
HETATM   25  C20 RAP  6544      -7.623  34.995 225.563  1.00 20.00    -0.000 C 
HETATM   26  C21 RAP  6544      -7.822  35.195 224.115  1.00 20.00    -0.004 C 
HETATM   27  C22 RAP  6544      -8.160  36.368 223.615  1.00 20.00    -0.022 C 
HETATM   28  C23 RAP  6544      -8.271  36.661 222.134  1.00 20.00     0.005 C 
HETATM   29  C24 RAP  6544      -7.347  37.832 221.852  1.00 20.00     0.020 C 
HETATM   30  C25 RAP  6544      -5.907  37.707 222.314  1.00 20.00     0.055 C 
HETATM   31  C26 RAP  6544      -5.249  39.076 222.411  1.00 20.00     0.162 C 
HETATM   32  O8  RAP  6544      -4.713  39.601 221.438  1.00 20.00    -0.295 OA
HETATM   33  C27 RAP  6544      -5.278  39.754 223.777  1.00 20.00     0.223 C 
HETATM   34  C28 RAP  6544      -4.127  39.293 224.727  1.00 20.00     0.183 C 
HETATM   35  C29 RAP  6544      -4.418  37.961 225.445  1.00 20.00    -0.056 C 
HETATM   36  C30 RAP  6544      -3.767  36.831 225.173  1.00 20.00    -0.010 C 
HETATM   37  C31 RAP  6544      -3.899  35.442 225.815  1.00 20.00     0.074 C 
HETATM   38  C32 RAP  6544      -2.730  35.205 226.770  1.00 20.00     0.136 C 
HETATM   39  O11 RAP  6544      -1.773  34.485 226.471  1.00 20.00    -0.297 OA
HETATM   40  C33 RAP  6544      -2.794  35.962 228.092  1.00 20.00     0.112 C 
HETATM   41  C34 RAP  6544      -1.452  36.543 228.489  1.00 20.00     0.142 C 
HETATM   42  C43 RAP  6544      -1.548  34.243 234.494  1.00 20.00     0.016 C 
HETATM   43  C44 RAP  6544      -6.020  31.346 227.395  1.00 20.00     0.046 C 
HETATM   44  C45 RAP  6544      -9.704  37.001 221.751  1.00 20.00     0.014 C 
HETATM   45  C46 RAP  6544      -5.100  36.777 221.403  1.00 20.00     0.018 C 
HETATM   46  C47 RAP  6544      -5.523  38.040 226.483  1.00 20.00     0.046 C 
HETATM   47  C48 RAP  6544      -3.887  34.378 224.706  1.00 20.00     0.022 C 
ENDROOT
BRANCH  41  48
HETATM   48  C35 RAP  6544      -1.424  37.690 229.519  1.00 20.00     0.012 C 
HETATM   49  C49 RAP  6544      -1.769  37.219 230.903  1.00 20.00     0.012 C 
BRANCH  48  50
HETATM   50  C36 RAP  6544      -2.324  38.854 229.110  1.00 20.00     0.011 C 
BRANCH  50  51
HETATM   51  C37 RAP  6544      -1.648  40.086 228.506  1.00 20.00    -0.012 C 
HETATM   52  C42 RAP  6544      -2.106  40.460 227.097  1.00 20.00     0.007 C 
HETATM   53  C41 RAP  6544      -1.427  41.722 226.580  1.00 20.00     0.035 C 
HETATM   54  C40 RAP  6544       0.107  41.592 226.655  1.00 20.00     0.147 C 
HETATM   55  C39 RAP  6544       0.623  41.173 228.076  1.00 20.00     0.150 C 
HETATM   56  C38 RAP  6544      -0.123  39.926 228.555  1.00 20.00     0.039 C 
BRANCH  54  57
HETATM   57  O13 RAP  6544       0.699  42.838 226.293  1.00 20.00    -0.393 OA
ATOM     58  H13 RAP  6544       1.641  42.777 226.401  1.00  0.00     0.210 HD
ENDBRANCH  54  57
BRANCH  55  59
HETATM   59  O12 RAP  6544       1.984  40.826 228.019  1.00 20.00    -0.388 OA
HETATM   60  C52 RAP  6544       2.882  41.741 228.544  1.00 20.00     0.202 C 
ENDBRANCH  55  59
ENDBRANCH  50  51
ENDBRANCH  48  50
ENDBRANCH  41  48
BRANCH  34  61
HETATM   61  O10 RAP  6544      -2.937  39.168 223.936  1.00 20.00    -0.388 OA
ATOM     62  H10 RAP  6544      -2.420  39.953 224.072  1.00  0.00     0.210 HD
ENDBRANCH  34  61
BRANCH  33  63
HETATM   63  O9  RAP  6544      -5.119  41.136 223.595  1.00 20.00    -0.380 OA
HETATM   64  C51 RAP  6544      -6.186  41.920 224.001  1.00 20.00     0.202 C 
ENDBRANCH  33  63
BRANCH  14  65
HETATM   65  O6  RAP  6544      -2.597  31.594 233.548  1.00 20.00    -0.359 OA
ATOM     66  H6  RAP  6544      -1.872  31.060 233.847  1.00  0.00     0.213 HD
ENDBRANCH  14  65
BRANCH  21  67
HETATM   67  O7  RAP  6544      -6.710  31.673 230.185  1.00 20.00    -0.386 OA
HETATM   68  C50 RAP  6544      -8.002  31.903 230.649  1.00 20.00     0.202 C 
ENDBRANCH  21  67
TORSDOF 9
ENDMDL
MODEL 2
REMARK VINA RESULT:      -6.4      3.390     10.421
REMARK  9 active torsions:
REMARK  status: ('A' for Active; 'I' for Inactive)
REMARK    1  A    between atoms: C10_14  and  O6_16 
REMARK    2  A    between atoms: C16_23  and  O7_24 
REMARK    3  A    between atoms: C27_36  and  O9_37 
REMARK    4  A    between atoms: C28_38  and  O10_39 
REMARK    5  A    between atoms: C34_47  and  C35_48 
REMARK    6  A    between atoms: C35_48  and  C36_49 
REMARK    7  A    between atoms: C36_49  and  C37_50 
REMARK    8  A    between atoms: C39_52  and  O12_53 
REMARK    9  A    between atoms: C40_54  and  O13_55 
ROOT
HETATM    1  C1  RAP  6544       0.494  30.437 226.624  1.00 20.00     0.282 C 
HETATM    2  O1  RAP  6544      -0.601  31.017 227.322  1.00 20.00    -0.314 OA
HETATM    3  O2  RAP  6544       1.225  29.664 227.239  1.00 20.00    -0.263 OA
HETATM    4  C2  RAP  6544       0.754  30.717 225.145  1.00 20.00     0.187 C 
HETATM    5  C3  RAP  6544       2.232  30.969 224.887  1.00 20.00     0.035 C 
HETATM    6  C4  RAP  6544       2.706  32.340 225.347  1.00 20.00     0.004 C 
HETATM    7  C5  RAP  6544       1.828  33.390 224.691  1.00 20.00     0.020 C 
HETATM    8  C6  RAP  6544       0.389  33.176 225.044  1.00 20.00     0.127 C 
HETATM    9  N7  RAP  6544       0.003  31.838 224.570  1.00 20.00    -0.331 N 
HETATM   10  C8  RAP  6544      -1.078  31.612 223.807  1.00 20.00     0.296 C 
HETATM   11  O3  RAP  6544      -1.372  30.440 223.538  1.00 20.00    -0.264 OA
HETATM   12  C9  RAP  6544      -1.844  32.650 223.234  1.00 20.00     0.278 C 
HETATM   13  O4  RAP  6544      -1.501  33.119 222.142  1.00 20.00    -0.281 OA
HETATM   14  C10 RAP  6544      -3.100  33.221 223.917  1.00 20.00     0.238 C 
HETATM   15  O5  RAP  6544      -2.620  34.051 224.950  1.00 20.00    -0.343 OA
HETATM   16  C11 RAP  6544      -4.039  32.108 224.540  1.00 20.00     0.053 C 
HETATM   17  C12 RAP  6544      -5.102  32.731 225.474  1.00 20.00     0.013 C 
HETATM   18  C13 RAP  6544      -4.450  33.692 226.457  1.00 20.00     0.033 C 
HETATM   19  C14 RAP  6544      -3.505  34.691 225.796  1.00 20.00     0.128 C 
HETATM   20  C15 RAP  6544      -2.631  35.345 226.851  1.00 20.00     0.068 C 
HETATM   21  C16 RAP  6544      -3.321  36.313 227.806  1.00 20.00     0.152 C 
HETATM   22  C17 RAP  6544      -2.350  36.866 228.828  1.00 20.00    -0.055 C 
HETATM   23  C18 RAP  6544      -2.517  36.536 230.102  1.00 20.00     0.005 C 
HETATM   24  C19 RAP  6544      -1.643  36.968 231.201  1.00 20.00     0.000 C 
HETATM   25  C20 RAP  6544      -1.946  36.613 232.442  1.00 20.00    -0.000 C 
HETATM   26  C21 RAP  6544      -1.051  36.934 233.570  1.00 20.00    -0.004 C 
HETATM   27  C22 RAP  6544      -1.231  36.417 234.770  1.00 20.00    -0.022 C 
HETATM   28  C23 RAP  6544      -0.285  36.621 235.934  1.00 20.00     0.005 C 
HETATM   29  C24 RAP  6544       0.132  35.238 236.403  1.00 20.00     0.020 C 
HETATM   30  C25 RAP  6544       0.690  34.290 235.359  1.00 20.00     0.055 C 
HETATM   31  C26 RAP  6544       0.607  32.848 235.837  1.00 20.00     0.162 C 
HETATM   32  O8  RAP  6544       1.495  32.346 236.523  1.00 20.00    -0.295 OA
HETATM   33  C27 RAP  6544      -0.626  32.056 235.414  1.00 20.00     0.223 C 
HETATM   34  C28 RAP  6544      -0.504  31.426 233.990  1.00 20.00     0.183 C 
HETATM   35  C29 RAP  6544      -0.816  32.414 232.849  1.00 20.00    -0.056 C 
HETATM   36  C30 RAP  6544       0.113  32.877 232.014  1.00 20.00    -0.010 C 
HETATM   37  C31 RAP  6544      -0.031  33.821 230.811  1.00 20.00     0.074 C 
HETATM   38  C32 RAP  6544       0.032  33.014 229.515  1.00 20.00     0.136 C 
HETATM   39  O11 RAP  6544       1.044  32.987 228.807  1.00 20.00    -0.297 OA
HETATM   40  C33 RAP  6544      -1.212  32.199 229.184  1.00 20.00     0.112 C 
HETATM   41  C34 RAP  6544      -0.873  30.816 228.664  1.00 20.00     0.142 C 
HETATM   42  C43 RAP  6544      -4.706  31.150 223.510  1.00 20.00     0.016 C 
HETATM   43  C44 RAP  6544      -1.260  37.800 228.276  1.00 20.00     0.046 C 
HETATM   44  C45 RAP  6544      -0.962  37.390 237.059  1.00 20.00     0.014 C 
HETATM   45  C46 RAP  6544       2.127  34.655 234.975  1.00 20.00     0.018 C 
HETATM   46  C47 RAP  6544      -2.273  32.830 232.766  1.00 20.00     0.046 C 
HETATM   47  C48 RAP  6544       1.116  34.844 230.843  1.00 20.00     0.022 C 
ENDROOT
BRANCH  41  48
HETATM   48  C35 RAP  6544      -1.962  29.725 228.715  1.00 20.00     0.012 C 
HETATM   49  C49 RAP  6544      -2.888  29.792 227.535  1.00 20.00     0.012 C 
BRANCH  48  50
HETATM   50  C36 RAP  6544      -2.754  29.762 230.020  1.00 20.00     0.011 C 
BRANCH  50  51
HETATM   51  C37 RAP  6544      -4.196  30.270 229.952  1.00 20.00    -0.012 C 
HETATM   52  C42 RAP  6544      -4.353  31.787 229.857  1.00 20.00     0.007 C 
HETATM   53  C41 RAP  6544      -5.810  32.215 229.743  1.00 20.00     0.035 C 
HETATM   54  C40 RAP  6544      -6.646  31.637 230.902  1.00 20.00     0.147 C 
HETATM   55  C39 RAP  6544      -6.488  30.084 231.063  1.00 20.00     0.150 C 
HETATM   56  C38 RAP  6544      -5.005  29.714 231.130  1.00 20.00     0.039 C 
BRANCH  54  57
HETATM   57  O13 RAP  6544      -8.021  31.945 230.685  1.00 20.00    -0.393 OA
ATOM     58  H13 RAP  6544      -8.092  32.546 229.953  1.00  0.00     0.210 HD
ENDBRANCH  54  57
BRANCH  55  59
HETATM   59  O12 RAP  6544      -7.061  29.657 232.272  1.00 20.00    -0.388 OA
HETATM   60  C52 RAP  6544      -6.604  30.269 233.429  1.00 20.00     0.202 C 
ENDBRANCH  55  59
ENDBRANCH  50  51
ENDBRANCH  48  50
ENDBRANCH  41  48
BRANCH  34  61
HETATM   61  O10 RAP  6544       0.835  30.930 233.850  1.00 20.00    -0.388 OA
ATOM     62  H10 RAP  6544       1.194  30.826 234.723  1.00  0.00     0.210 HD
ENDBRANCH  34  61
BRANCH  33  63
HETATM   63  O9  RAP  6544      -0.806  30.992 236.310  1.00 20.00    -0.380 OA
HETATM   64  C51 RAP  6544      -1.785  31.180 237.272  1.00 20.00     0.202 C 
ENDBRANCH  33  63
BRANCH  14  65
HETATM   65  O6  RAP  6544      -3.846  33.973 222.956  1.00 20.00    -0.359 OA
ATOM     66  H6  RAP  6544      -3.283  34.167 222.216  1.00  0.00     0.213 HD
ENDBRANCH  14  65
BRANCH  21  67
HETATM   67  O7  RAP  6544      -3.843  37.359 227.050  1.00 20.00    -0.386 OA
HETATM   68  C50 RAP  6544      -5.227  37.386 226.904  1.00 20.00     0.202 C 
ENDBRANCH  21  67
TORSDOF 9
ENDMDL
MODEL 3
REMARK VINA RESULT:      -6.1      3.438      9.491
REMARK  9 active torsions:
REMARK  status: ('A' for Active; 'I' for Inactive)
REMARK    1  A    between atoms: C10_14  and  O6_16 
REMARK    2  A    between atoms: C16_23  and  O7_24 
REMARK    3  A    between atoms: C27_36  and  O9_37 
REMARK    4  A    between atoms: C28_38  and  O10_39 
REMARK    5  A    between atoms: C34_47  and  C35_48 
REMARK    6  A    between atoms: C35_48  and  C36_49 
REMARK    7  A    between atoms: C36_49  and  C37_50 
REMARK    8  A    between atoms: C39_52  and  O12_53 
REMARK    9  A    between atoms: C40_54  and  O13_55 
ROOT
HETATM    1  C1  RAP  6544      -3.581  34.311 225.847  1.00 20.00     0.282 C 
HETATM    2  O1  RAP  6544      -3.818  33.310 226.829  1.00 20.00    -0.314 OA
HETATM    3  O2  RAP  6544      -2.436  34.741 225.726  1.00 20.00    -0.263 OA
HETATM    4  C2  RAP  6544      -4.688  34.826 224.928  1.00 20.00     0.187 C 
HETATM    5  C3  RAP  6544      -4.635  36.341 224.803  1.00 20.00     0.035 C 
HETATM    6  C4  RAP  6544      -5.156  37.074 226.031  1.00 20.00     0.004 C 
HETATM    7  C5  RAP  6544      -6.561  36.576 226.318  1.00 20.00     0.020 C 
HETATM    8  C6  RAP  6544      -6.568  35.095 226.536  1.00 20.00     0.127 C 
HETATM    9  N7  RAP  6544      -6.054  34.458 225.314  1.00 20.00    -0.331 N 
HETATM   10  C8  RAP  6544      -6.696  33.465 224.678  1.00 20.00     0.296 C 
HETATM   11  O3  RAP  6544      -6.138  32.929 223.711  1.00 20.00    -0.264 OA
HETATM   12  C9  RAP  6544      -8.007  33.062 225.010  1.00 20.00     0.278 C 
HETATM   13  O4  RAP  6544      -8.967  33.651 224.498  1.00 20.00    -0.281 OA
HETATM   14  C10 RAP  6544      -8.292  31.906 225.987  1.00 20.00     0.238 C 
HETATM   15  O5  RAP  6544      -8.055  32.435 227.271  1.00 20.00    -0.343 OA
HETATM   16  C11 RAP  6544      -7.357  30.648 225.762  1.00 20.00     0.053 C 
HETATM   17  C12 RAP  6544      -7.458  29.657 226.945  1.00 20.00     0.013 C 
HETATM   18  C13 RAP  6544      -7.299  30.390 228.269  1.00 20.00     0.033 C 
HETATM   19  C14 RAP  6544      -8.179  31.631 228.388  1.00 20.00     0.128 C 
HETATM   20  C15 RAP  6544      -7.697  32.491 229.543  1.00 20.00     0.068 C 
HETATM   21  C16 RAP  6544      -7.924  31.941 230.946  1.00 20.00     0.152 C 
HETATM   22  C17 RAP  6544      -7.367  32.874 232.001  1.00 20.00    -0.055 C 
HETATM   23  C18 RAP  6544      -6.337  32.463 232.728  1.00 20.00     0.005 C 
HETATM   24  C19 RAP  6544      -5.671  33.262 233.765  1.00 20.00     0.000 C 
HETATM   25  C20 RAP  6544      -4.682  32.720 234.461  1.00 20.00    -0.000 C 
HETATM   26  C21 RAP  6544      -3.914  33.509 235.443  1.00 20.00    -0.004 C 
HETATM   27  C22 RAP  6544      -2.806  33.049 235.991  1.00 20.00    -0.022 C 
HETATM   28  C23 RAP  6544      -1.918  33.853 236.917  1.00 20.00     0.005 C 
HETATM   29  C24 RAP  6544      -0.531  33.850 236.301  1.00 20.00     0.020 C 
HETATM   30  C25 RAP  6544      -0.412  34.291 234.855  1.00 20.00     0.055 C 
HETATM   31  C26 RAP  6544       0.888  33.792 234.241  1.00 20.00     0.162 C 
HETATM   32  O8  RAP  6544       1.933  34.430 234.344  1.00 20.00    -0.295 OA
HETATM   33  C27 RAP  6544       0.825  32.469 233.484  1.00 20.00     0.223 C 
HETATM   34  C28 RAP  6544       0.351  32.620 232.003  1.00 20.00     0.183 C 
HETATM   35  C29 RAP  6544      -1.179  32.715 231.852  1.00 20.00    -0.056 C 
HETATM   36  C30 RAP  6544      -1.805  33.832 231.483  1.00 20.00    -0.010 C 
HETATM   37  C31 RAP  6544      -3.301  34.087 231.244  1.00 20.00     0.074 C 
HETATM   38  C32 RAP  6544      -3.582  34.120 229.742  1.00 20.00     0.136 C 
HETATM   39  O11 RAP  6544      -3.760  35.178 229.131  1.00 20.00    -0.297 OA
HETATM   40  C33 RAP  6544      -3.571  32.768 229.038  1.00 20.00     0.112 C 
HETATM   41  C34 RAP  6544      -2.860  32.821 227.701  1.00 20.00     0.142 C 
HETATM   42  C43 RAP  6544      -7.554  29.907 224.407  1.00 20.00     0.016 C 
HETATM   43  C44 RAP  6544      -8.090  34.224 232.146  1.00 20.00     0.046 C 
HETATM   44  C45 RAP  6544      -1.891  33.244 238.311  1.00 20.00     0.014 C 
HETATM   45  C46 RAP  6544      -0.533  35.812 234.715  1.00 20.00     0.018 C 
HETATM   46  C47 RAP  6544      -1.919  31.430 232.175  1.00 20.00     0.046 C 
HETATM   47  C48 RAP  6544      -3.682  35.436 231.875  1.00 20.00     0.022 C 
ENDROOT
BRANCH  41  48
HETATM   48  C35 RAP  6544      -2.361  31.501 227.082  1.00 20.00     0.012 C 
HETATM   49  C49 RAP  6544      -3.188  30.323 227.513  1.00 20.00     0.012 C 
BRANCH  48  50
HETATM   50  C36 RAP  6544      -0.883  31.251 227.370  1.00 20.00     0.011 C 
BRANCH  50  51
HETATM   51  C37 RAP  6544       0.090  32.400 227.097  1.00 20.00    -0.012 C 
HETATM   52  C42 RAP  6544       1.554  31.994 226.930  1.00 20.00     0.007 C 
HETATM   53  C41 RAP  6544       2.454  33.180 226.612  1.00 20.00     0.035 C 
HETATM   54  C40 RAP  6544       2.296  34.290 227.671  1.00 20.00     0.147 C 
HETATM   55  C39 RAP  6544       0.805  34.715 227.903  1.00 20.00     0.150 C 
HETATM   56  C38 RAP  6544      -0.054  33.479 228.177  1.00 20.00     0.039 C 
BRANCH  54  57
HETATM   57  O13 RAP  6544       3.049  35.432 227.265  1.00 20.00    -0.393 OA
ATOM     58  H13 RAP  6544       2.466  36.179 227.195  1.00  0.00     0.210 HD
ENDBRANCH  54  57
BRANCH  55  59
HETATM   59  O12 RAP  6544       0.701  35.533 229.041  1.00 20.00    -0.388 OA
HETATM   60  C52 RAP  6544      -0.413  36.355 229.118  1.00 20.00     0.202 C 
ENDBRANCH  55  59
ENDBRANCH  50  51
ENDBRANCH  48  50
ENDBRANCH  41  48
BRANCH  34  61
HETATM   61  O10 RAP  6544       0.966  33.802 231.471  1.00 20.00    -0.388 OA
ATOM     62  H10 RAP  6544       1.889  33.613 231.349  1.00  0.00     0.210 HD
ENDBRANCH  34  61
BRANCH  33  63
HETATM   63  O9  RAP  6544       2.113  31.915 233.440  1.00 20.00    -0.380 OA
HETATM   64  C51 RAP  6544       2.426  31.046 234.472  1.00 20.00     0.202 C 
ENDBRANCH  33  63
BRANCH  14  65
HETATM   65  O6  RAP  6544      -9.657  31.502 225.839  1.00 20.00    -0.359 OA
ATOM     66  H6  RAP  6544      -9.954  31.745 224.970  1.00  0.00     0.213 HD
ENDBRANCH  14  65
BRANCH  21  67
HETATM   67  O7  RAP  6544      -9.296  31.798 231.132  1.00 20.00    -0.386 OA
HETATM   68  C50 RAP  6544      -9.701  30.782 231.992  1.00 20.00     0.202 C 
ENDBRANCH  21  67
TORSDOF 9
ENDMDL
MODEL 4
REMARK VINA RESULT:      -5.6      3.015      9.282
REMARK  9 active torsions:
REMARK  status: ('A' for Active; 'I' for Inactive)
REMARK    1  A    between atoms: C10_14  and  O6_16 
REMARK    2  A    between atoms: C16_23  and  O7_24 
REMARK    3  A    between atoms: C27_36  and  O9_37 
REMARK    4  A    between atoms: C28_38  and  O10_39 
REMARK    5  A    between atoms: C34_47  and  C35_48 
REMARK    6  A    between atoms: C35_48  and  C36_49 
REMARK    7  A    between atoms: C36_49  and  C37_50 
REMARK    8  A    between atoms: C39_52  and  O12_53 
REMARK    9  A    between atoms: C40_54  and  O13_55 
ROOT
HETATM    1  C1  RAP  6544      -7.037  34.004 226.864  1.00 20.00     0.282 C 
HETATM    2  O1  RAP  6544      -5.658  34.349 226.895  1.00 20.00    -0.314 OA
HETATM    3  O2  RAP  6544      -7.750  34.394 227.786  1.00 20.00    -0.263 OA
HETATM    4  C2  RAP  6544      -7.650  33.208 225.713  1.00 20.00     0.187 C 
HETATM    5  C3  RAP  6544      -8.589  32.129 226.231  1.00 20.00     0.035 C 
HETATM    6  C4  RAP  6544      -7.869  30.929 226.830  1.00 20.00     0.004 C 
HETATM    7  C5  RAP  6544      -6.905  30.390 225.790  1.00 20.00     0.020 C 
HETATM    8  C6  RAP  6544      -5.928  31.444 225.371  1.00 20.00     0.127 C 
HETATM    9  N7  RAP  6544      -6.692  32.567 224.806  1.00 20.00    -0.331 N 
HETATM   10  C8  RAP  6544      -6.423  33.109 223.607  1.00 20.00     0.296 C 
HETATM   11  O3  RAP  6544      -7.062  34.111 223.259  1.00 20.00    -0.264 OA
HETATM   12  C9  RAP  6544      -5.506  32.542 222.696  1.00 20.00     0.278 C 
HETATM   13  O4  RAP  6544      -5.897  31.665 221.915  1.00 20.00    -0.281 OA
HETATM   14  C10 RAP  6544      -4.031  32.977 222.633  1.00 20.00     0.238 C 
HETATM   15  O5  RAP  6544      -3.413  32.366 223.743  1.00 20.00    -0.343 OA
HETATM   16  C11 RAP  6544      -3.833  34.545 222.726  1.00 20.00     0.053 C 
HETATM   17  C12 RAP  6544      -2.351  34.909 222.976  1.00 20.00     0.013 C 
HETATM   18  C13 RAP  6544      -1.787  34.087 224.126  1.00 20.00     0.033 C 
HETATM   19  C14 RAP  6544      -2.076  32.594 224.006  1.00 20.00     0.128 C 
HETATM   20  C15 RAP  6544      -1.820  31.914 225.340  1.00 20.00     0.068 C 
HETATM   21  C16 RAP  6544      -0.366  31.810 225.786  1.00 20.00     0.152 C 
HETATM   22  C17 RAP  6544      -0.252  31.147 227.143  1.00 20.00    -0.055 C 
HETATM   23  C18 RAP  6544       0.182  31.871 228.165  1.00 20.00     0.005 C 
HETATM   24  C19 RAP  6544       0.318  31.379 229.543  1.00 20.00     0.000 C 
HETATM   25  C20 RAP  6544       0.815  32.187 230.470  1.00 20.00    -0.000 C 
HETATM   26  C21 RAP  6544       0.879  31.779 231.886  1.00 20.00    -0.004 C 
HETATM   27  C22 RAP  6544       1.177  32.636 232.844  1.00 20.00    -0.022 C 
HETATM   28  C23 RAP  6544       1.151  32.302 234.320  1.00 20.00     0.005 C 
HETATM   29  C24 RAP  6544       0.211  33.300 234.975  1.00 20.00     0.020 C 
HETATM   30  C25 RAP  6544      -1.180  33.434 234.384  1.00 20.00     0.055 C 
HETATM   31  C26 RAP  6544      -1.817  34.754 234.795  1.00 20.00     0.162 C 
HETATM   32  O8  RAP  6544      -2.438  34.866 235.849  1.00 20.00    -0.295 OA
HETATM   33  C27 RAP  6544      -1.656  35.923 233.828  1.00 20.00     0.223 C 
HETATM   34  C28 RAP  6544      -2.716  35.933 232.680  1.00 20.00     0.183 C 
HETATM   35  C29 RAP  6544      -2.368  34.992 231.512  1.00 20.00    -0.056 C 
HETATM   36  C30 RAP  6544      -3.049  33.877 231.248  1.00 20.00    -0.010 C 
HETATM   37  C31 RAP  6544      -2.866  32.860 230.112  1.00 20.00     0.074 C 
HETATM   38  C32 RAP  6544      -3.942  33.079 229.050  1.00 20.00     0.136 C 
HETATM   39  O11 RAP  6544      -4.928  32.341 228.952  1.00 20.00    -0.297 OA
HETATM   40  C33 RAP  6544      -3.750  34.300 228.157  1.00 20.00     0.112 C 
HETATM   41  C34 RAP  6544      -5.045  35.049 227.920  1.00 20.00     0.142 C 
HETATM   42  C43 RAP  6544      -4.403  35.359 221.528  1.00 20.00     0.016 C 
HETATM   43  C44 RAP  6544      -0.633  29.657 227.192  1.00 20.00     0.046 C 
HETATM   44  C45 RAP  6544       2.543  32.397 234.926  1.00 20.00     0.014 C 
HETATM   45  C46 RAP  6544      -2.074  32.253 234.770  1.00 20.00     0.018 C 
HETATM   46  C47 RAP  6544      -1.170  35.433 230.690  1.00 20.00     0.046 C 
HETATM   47  C48 RAP  6544      -2.988  31.441 230.691  1.00 20.00     0.022 C 
ENDROOT
BRANCH  41  48
HETATM   48  C35 RAP  6544      -4.970  36.514 227.444  1.00 20.00     0.012 C 
HETATM   49  C49 RAP  6544      -5.696  36.727 226.147  1.00 20.00     0.012 C 
BRANCH  48  50
HETATM   50  C36 RAP  6544      -3.530  37.012 227.340  1.00 20.00     0.011 C 
BRANCH  50  51
HETATM   51  C37 RAP  6544      -3.319  38.520 227.195  1.00 20.00    -0.012 C 
HETATM   52  C42 RAP  6544      -3.134  39.022 225.763  1.00 20.00     0.007 C 
HETATM   53  C41 RAP  6544      -2.978  40.535 225.692  1.00 20.00     0.035 C 
HETATM   54  C40 RAP  6544      -1.832  41.014 226.606  1.00 20.00     0.147 C 
HETATM   55  C39 RAP  6544      -1.959  40.493 228.080  1.00 20.00     0.150 C 
HETATM   56  C38 RAP  6544      -2.153  38.976 228.082  1.00 20.00     0.039 C 
BRANCH  54  57
HETATM   57  O13 RAP  6544      -1.809  42.440 226.615  1.00 20.00    -0.393 OA
ATOM     58  H13 RAP  6544      -1.699  42.743 227.509  1.00  0.00     0.210 HD
ENDBRANCH  54  57
BRANCH  55  59
HETATM   59  O12 RAP  6544      -0.773  40.745 228.790  1.00 20.00    -0.388 OA
HETATM   60  C52 RAP  6544       0.412  40.361 228.181  1.00 20.00     0.202 C 
ENDBRANCH  55  59
ENDBRANCH  50  51
ENDBRANCH  48  50
ENDBRANCH  41  48
BRANCH  34  61
HETATM   61  O10 RAP  6544      -3.976  35.553 233.252  1.00 20.00    -0.388 OA
ATOM     62  H10 RAP  6544      -4.489  35.145 232.565  1.00  0.00     0.210 HD
ENDBRANCH  34  61
BRANCH  33  63
HETATM   63  O9  RAP  6544      -1.823  37.120 234.540  1.00 20.00    -0.380 OA
HETATM   64  C51 RAP  6544      -0.905  37.346 235.552  1.00 20.00     0.202 C 
ENDBRANCH  33  63
BRANCH  14  65
HETATM   65  O6  RAP  6544      -3.464  32.510 221.405  1.00 20.00    -0.359 OA
ATOM     66  H6  RAP  6544      -2.897  33.185 221.054  1.00  0.00     0.213 HD
ENDBRANCH  14  65
BRANCH  21  67
HETATM   67  O7  RAP  6544       0.317  31.049 224.840  1.00 20.00    -0.386 OA
HETATM   68  C50 RAP  6544       1.673  31.323 224.690  1.00 20.00     0.202 C 
ENDBRANCH  21  67
TORSDOF 9
ENDMDL
MODEL 5
REMARK VINA RESULT:      -5.5      2.757     10.689
REMARK  9 active torsions:
REMARK  status: ('A' for Active; 'I' for Inactive)
REMARK    1  A    between atoms: C10_14  and  O6_16 
REMARK    2  A    between atoms: C16_23  and  O7_24 
REMARK    3  A    between atoms: C27_36  and  O9_37 
REMARK    4  A    between atoms: C28_38  and  O10_39 
REMARK    5  A    between atoms: C34_47  and  C35_48 
REMARK    6  A    between atoms: C35_48  and  C36_49 
REMARK    7  A    between atoms: C36_49  and  C37_50 
REMARK    8  A    between atoms: C39_52  and  O12_53 
REMARK    9  A    between atoms: C40_54  and  O13_55 
ROOT
HETATM    1  C1  RAP  6544      -4.908  31.563 225.603  1.00 20.00     0.282 C 
HETATM    2  O1  RAP  6544      -5.197  32.617 226.513  1.00 20.00    -0.314 OA
HETATM    3  O2  RAP  6544      -4.981  30.408 226.015  1.00 20.00    -0.263 OA
HETATM    4  C2  RAP  6544      -4.553  31.828 224.140  1.00 20.00     0.187 C 
HETATM    5  C3  RAP  6544      -3.381  30.966 223.696  1.00 20.00     0.035 C 
HETATM    6  C4  RAP  6544      -2.037  31.443 224.227  1.00 20.00     0.004 C 
HETATM    7  C5  RAP  6544      -1.857  32.895 223.825  1.00 20.00     0.020 C 
HETATM    8  C6  RAP  6544      -2.973  33.738 224.361  1.00 20.00     0.127 C 
HETATM    9  N7  RAP  6544      -4.234  33.220 223.807  1.00 20.00    -0.331 N 
HETATM   10  C8  RAP  6544      -5.140  33.997 223.192  1.00 20.00     0.296 C 
HETATM   11  O3  RAP  6544      -6.212  33.485 222.844  1.00 20.00    -0.264 OA
HETATM   12  C9  RAP  6544      -4.892  35.345 222.854  1.00 20.00     0.278 C 
HETATM   13  O4  RAP  6544      -4.334  35.604 221.780  1.00 20.00    -0.281 OA
HETATM   14  C10 RAP  6544      -5.297  36.513 223.773  1.00 20.00     0.238 C 
HETATM   15  O5  RAP  6544      -4.339  36.524 224.807  1.00 20.00    -0.343 OA
HETATM   16  C11 RAP  6544      -6.740  36.347 224.402  1.00 20.00     0.053 C 
HETATM   17  C12 RAP  6544      -6.972  37.362 225.545  1.00 20.00     0.013 C 
HETATM   18  C13 RAP  6544      -5.803  37.345 226.519  1.00 20.00     0.033 C 
HETATM   19  C14 RAP  6544      -4.441  37.437 225.838  1.00 20.00     0.128 C 
HETATM   20  C15 RAP  6544      -3.350  37.041 226.818  1.00 20.00     0.068 C 
HETATM   21  C16 RAP  6544      -3.076  38.009 227.963  1.00 20.00     0.152 C 
HETATM   22  C17 RAP  6544      -1.997  37.482 228.885  1.00 20.00    -0.055 C 
HETATM   23  C18 RAP  6544      -2.330  37.154 230.126  1.00 20.00     0.005 C 
HETATM   24  C19 RAP  6544      -1.404  36.603 231.125  1.00 20.00     0.000 C 
HETATM   25  C20 RAP  6544      -1.847  36.363 232.351  1.00 20.00    -0.000 C 
HETATM   26  C21 RAP  6544      -0.989  35.718 233.362  1.00 20.00    -0.004 C 
HETATM   27  C22 RAP  6544      -1.471  35.289 234.513  1.00 20.00    -0.022 C 
HETATM   28  C23 RAP  6544      -0.664  34.524 235.540  1.00 20.00     0.005 C 
HETATM   29  C24 RAP  6544      -1.404  33.221 235.790  1.00 20.00     0.020 C 
HETATM   30  C25 RAP  6544      -1.753  32.378 234.578  1.00 20.00     0.055 C 
HETATM   31  C26 RAP  6544      -2.872  31.398 234.904  1.00 20.00     0.162 C 
HETATM   32  O8  RAP  6544      -2.636  30.295 235.393  1.00 20.00    -0.295 OA
HETATM   33  C27 RAP  6544      -4.293  31.850 234.584  1.00 20.00     0.223 C 
HETATM   34  C28 RAP  6544      -4.705  31.603 233.098  1.00 20.00     0.183 C 
HETATM   35  C29 RAP  6544      -4.201  32.691 232.130  1.00 20.00    -0.056 C 
HETATM   36  C30 RAP  6544      -3.251  32.472 231.222  1.00 20.00    -0.010 C 
HETATM   37  C31 RAP  6544      -2.668  33.420 230.163  1.00 20.00     0.074 C 
HETATM   38  C32 RAP  6544      -3.249  33.077 228.792  1.00 20.00     0.136 C 
HETATM   39  O11 RAP  6544      -2.605  32.452 227.943  1.00 20.00    -0.297 OA
HETATM   40  C33 RAP  6544      -4.694  33.504 228.561  1.00 20.00     0.112 C 
HETATM   41  C34 RAP  6544      -5.504  32.438 227.851  1.00 20.00     0.142 C 
HETATM   42  C43 RAP  6544      -7.917  36.388 223.385  1.00 20.00     0.016 C 
HETATM   43  C44 RAP  6544      -0.584  37.406 228.282  1.00 20.00     0.046 C 
HETATM   44  C45 RAP  6544      -0.526  35.320 236.829  1.00 20.00     0.014 C 
HETATM   45  C46 RAP  6544      -0.527  31.643 234.028  1.00 20.00     0.018 C 
HETATM   46  C47 RAP  6544      -4.869  34.042 232.307  1.00 20.00     0.046 C 
HETATM   47  C48 RAP  6544      -1.140  33.255 230.136  1.00 20.00     0.022 C 
ENDROOT
BRANCH  41  48
HETATM   48  C35 RAP  6544      -7.041  32.501 227.943  1.00 20.00     0.012 C 
HETATM   49  C49 RAP  6544      -7.667  32.993 226.669  1.00 20.00     0.012 C 
BRANCH  48  50
HETATM   50  C36 RAP  6544      -7.514  33.337 229.130  1.00 20.00     0.011 C 
BRANCH  50  51
HETATM   51  C37 RAP  6544      -7.855  32.592 230.422  1.00 20.00    -0.012 C 
HETATM   52  C42 RAP  6544      -8.614  31.278 230.241  1.00 20.00     0.007 C 
HETATM   53  C41 RAP  6544      -8.876  30.570 231.563  1.00 20.00     0.035 C 
HETATM   54  C40 RAP  6544      -9.600  31.503 232.554  1.00 20.00     0.147 C 
HETATM   55  C39 RAP  6544      -8.876  32.881 232.745  1.00 20.00     0.150 C 
HETATM   56  C38 RAP  6544      -8.606  33.523 231.383  1.00 20.00     0.039 C 
BRANCH  54  57
HETATM   57  O13 RAP  6544      -9.703  30.851 233.818  1.00 20.00    -0.393 OA
ATOM     58  H13 RAP  6544      -9.109  30.110 233.835  1.00  0.00     0.210 HD
ENDBRANCH  54  57
BRANCH  55  59
HETATM   59  O12 RAP  6544      -9.702  33.773 233.449  1.00 20.00    -0.388 OA
HETATM   60  C52 RAP  6544      -9.141  34.411 234.544  1.00 20.00     0.202 C 
ENDBRANCH  55  59
ENDBRANCH  50  51
ENDBRANCH  48  50
ENDBRANCH  41  48
BRANCH  34  61
HETATM   61  O10 RAP  6544      -4.179  30.326 232.709  1.00 20.00    -0.388 OA
ATOM     62  H10 RAP  6544      -3.283  30.279 233.021  1.00  0.00     0.210 HD
ENDBRANCH  34  61
BRANCH  33  63
HETATM   63  O9  RAP  6544      -5.187  31.114 235.377  1.00 20.00    -0.380 OA
HETATM   64  C51 RAP  6544      -6.491  31.060 234.913  1.00 20.00     0.202 C 
ENDBRANCH  33  63
BRANCH  14  65
HETATM   65  O6  RAP  6544      -5.256  37.728 223.018  1.00 20.00    -0.359 OA
ATOM     66  H6  RAP  6544      -5.858  37.655 222.288  1.00  0.00     0.213 HD
ENDBRANCH  14  65
BRANCH  21  67
HETATM   67  O7  RAP  6544      -2.663  39.218 227.410  1.00 20.00    -0.386 OA
HETATM   68  C50 RAP  6544      -2.252  40.200 228.307  1.00 20.00     0.202 C 
ENDBRANCH  21  67
TORSDOF 9
ENDMDL
MODEL 6
REMARK VINA RESULT:      -5.4      3.942      9.913
REMARK  9 active torsions:
REMARK  status: ('A' for Active; 'I' for Inactive)
REMARK    1  A    between atoms: C10_14  and  O6_16 
REMARK    2  A    between atoms: C16_23  and  O7_24 
REMARK    3  A    between atoms: C27_36  and  O9_37 
REMARK    4  A    between atoms: C28_38  and  O10_39 
REMARK    5  A    between atoms: C34_47  and  C35_48 
REMARK    6  A    between atoms: C35_48  and  C36_49 
REMARK    7  A    between atoms: C36_49  and  C37_50 
REMARK    8  A    between atoms: C39_52  and  O12_53 
REMARK    9  A    between atoms: C40_54  and  O13_55 
ROOT
HETATM    1  C1  RAP  6544      -3.392  34.390 225.945  1.00 20.00     0.282 C 
HETATM    2  O1  RAP  6544      -3.641  33.379 226.915  1.00 20.00    -0.314 OA
HETATM    3  O2  RAP  6544      -2.252  34.841 225.862  1.00 20.00    -0.263 OA
HETATM    4  C2  RAP  6544      -4.479  34.890 224.995  1.00 20.00     0.187 C 
HETATM    5  C3  RAP  6544      -4.451  36.406 224.880  1.00 20.00     0.035 C 
HETATM    6  C4  RAP  6544      -5.023  37.122 226.095  1.00 20.00     0.004 C 
HETATM    7  C5  RAP  6544      -6.427  36.598 226.335  1.00 20.00     0.020 C 
HETATM    8  C6  RAP  6544      -6.413  35.115 226.545  1.00 20.00     0.127 C 
HETATM    9  N7  RAP  6544      -5.850  34.494 225.336  1.00 20.00    -0.331 N 
HETATM   10  C8  RAP  6544      -6.453  33.494 224.675  1.00 20.00     0.296 C 
HETATM   11  O3  RAP  6544      -5.855  32.974 223.724  1.00 20.00    -0.264 OA
HETATM   12  C9  RAP  6544      -7.767  33.064 224.965  1.00 20.00     0.278 C 
HETATM   13  O4  RAP  6544      -8.720  33.639 224.426  1.00 20.00    -0.281 OA
HETATM   14  C10 RAP  6544      -8.060  31.898 225.926  1.00 20.00     0.238 C 
HETATM   15  O5  RAP  6544      -7.873  32.424 227.220  1.00 20.00    -0.343 OA
HETATM   16  C11 RAP  6544      -7.095  30.659 225.724  1.00 20.00     0.053 C 
HETATM   17  C12 RAP  6544      -7.215  29.660 226.898  1.00 20.00     0.013 C 
HETATM   18  C13 RAP  6544      -7.110  30.388 228.230  1.00 20.00     0.033 C 
HETATM   19  C14 RAP  6544      -8.016  31.611 228.328  1.00 20.00     0.128 C 
HETATM   20  C15 RAP  6544      -7.586  32.474 229.502  1.00 20.00     0.068 C 
HETATM   21  C16 RAP  6544      -7.846  31.912 230.895  1.00 20.00     0.152 C 
HETATM   22  C17 RAP  6544      -7.340  32.848 231.971  1.00 20.00    -0.055 C 
HETATM   23  C18 RAP  6544      -6.325  32.453 232.727  1.00 20.00     0.005 C 
HETATM   24  C19 RAP  6544      -5.707  33.258 233.789  1.00 20.00     0.000 C 
HETATM   25  C20 RAP  6544      -4.730  32.730 234.513  1.00 20.00    -0.000 C 
HETATM   26  C21 RAP  6544      -4.008  33.528 235.522  1.00 20.00    -0.004 C 
HETATM   27  C22 RAP  6544      -2.909  33.085 236.102  1.00 20.00    -0.022 C 
HETATM   28  C23 RAP  6544      -2.066  33.900 237.060  1.00 20.00     0.005 C 
HETATM   29  C24 RAP  6544      -0.660  33.926 236.487  1.00 20.00     0.020 C 
HETATM   30  C25 RAP  6544      -0.505  34.377 235.047  1.00 20.00     0.055 C 
HETATM   31  C26 RAP  6544       0.823  33.905 234.472  1.00 20.00     0.162 C 
HETATM   32  O8  RAP  6544       1.853  34.562 234.611  1.00 20.00    -0.295 OA
HETATM   33  C27 RAP  6544       0.808  32.586 233.707  1.00 20.00     0.223 C 
HETATM   34  C28 RAP  6544       0.378  32.736 232.212  1.00 20.00     0.183 C 
HETATM   35  C29 RAP  6544      -1.149  32.805 232.014  1.00 20.00    -0.056 C 
HETATM   36  C30 RAP  6544      -1.783  33.912 231.631  1.00 20.00    -0.010 C 
HETATM   37  C31 RAP  6544      -3.275  34.140 231.347  1.00 20.00     0.074 C 
HETATM   38  C32 RAP  6544      -3.511  34.177 229.838  1.00 20.00     0.136 C 
HETATM   39  O11 RAP  6544      -3.689  35.235 229.227  1.00 20.00    -0.297 OA
HETATM   40  C33 RAP  6544      -3.452  32.829 229.128  1.00 20.00     0.112 C 
HETATM   41  C34 RAP  6544      -2.702  32.903 227.813  1.00 20.00     0.142 C 
HETATM   42  C43 RAP  6544      -7.236  29.923 224.360  1.00 20.00     0.016 C 
HETATM   43  C44 RAP  6544      -8.092  34.184 232.100  1.00 20.00     0.046 C 
HETATM   44  C45 RAP  6544      -2.070  33.283 238.451  1.00 20.00     0.014 C 
HETATM   45  C46 RAP  6544      -0.649  35.896 234.912  1.00 20.00     0.018 C 
HETATM   46  C47 RAP  6544      -1.874  31.504 232.307  1.00 20.00     0.046 C 
HETATM   47  C48 RAP  6544      -3.701  35.479 231.973  1.00 20.00     0.022 C 
ENDROOT
BRANCH  41  48
HETATM   48  C35 RAP  6544      -2.159  31.595 227.203  1.00 20.00     0.012 C 
HETATM   49  C49 RAP  6544      -3.128  30.456 227.349  1.00 20.00     0.012 C 
BRANCH  48  50
HETATM   50  C36 RAP  6544      -0.796  31.215 227.774  1.00 20.00     0.011 C 
BRANCH  50  51
HETATM   51  C37 RAP  6544       0.274  30.746 226.786  1.00 20.00    -0.012 C 
HETATM   52  C42 RAP  6544       1.717  30.863 227.276  1.00 20.00     0.007 C 
HETATM   53  C41 RAP  6544       2.721  30.334 226.261  1.00 20.00     0.035 C 
HETATM   54  C40 RAP  6544       2.536  31.021 224.894  1.00 20.00     0.147 C 
HETATM   55  C39 RAP  6544       1.061  30.959 224.365  1.00 20.00     0.150 C 
HETATM   56  C38 RAP  6544       0.099  31.465 225.442  1.00 20.00     0.039 C 
BRANCH  54  57
HETATM   57  O13 RAP  6544       3.399  30.403 223.941  1.00 20.00    -0.393 OA
ATOM     58  H13 RAP  6544       3.548  29.501 224.197  1.00  0.00     0.210 HD
ENDBRANCH  54  57
BRANCH  55  59
HETATM   59  O12 RAP  6544       0.902  31.809 223.258  1.00 20.00    -0.388 OA
HETATM   60  C52 RAP  6544      -0.048  32.811 223.372  1.00 20.00     0.202 C 
ENDBRANCH  55  59
ENDBRANCH  50  51
ENDBRANCH  48  50
ENDBRANCH  41  48
BRANCH  34  61
HETATM   61  O10 RAP  6544       0.987  33.932 231.706  1.00 20.00    -0.388 OA
ATOM     62  H10 RAP  6544       1.056  33.841 230.763  1.00  0.00     0.210 HD
ENDBRANCH  34  61
BRANCH  33  63
HETATM   63  O9  RAP  6544       2.107  32.056 233.700  1.00 20.00    -0.380 OA
HETATM   64  C51 RAP  6544       2.296  30.927 234.479  1.00 20.00     0.202 C 
ENDBRANCH  33  63
BRANCH  14  65
HETATM   65  O6  RAP  6544      -9.411  31.471 225.734  1.00 20.00    -0.359 OA
ATOM     66  H6  RAP  6544      -9.659  31.639 224.832  1.00  0.00     0.213 HD
ENDBRANCH  14  65
BRANCH  21  67
HETATM   67  O7  RAP  6544      -9.221  31.743 231.037  1.00 20.00    -0.386 OA
HETATM   68  C50 RAP  6544      -9.634  30.727 231.894  1.00 20.00     0.202 C 
ENDBRANCH  21  67
TORSDOF 9
ENDMDL
MODEL 7
REMARK VINA RESULT:      -5.3      3.756     10.735
REMARK  9 active torsions:
REMARK  status: ('A' for Active; 'I' for Inactive)
REMARK    1  A    between atoms: C10_14  and  O6_16 
REMARK    2  A    between atoms: C16_23  and  O7_24 
REMARK    3  A    between atoms: C27_36  and  O9_37 
REMARK    4  A    between atoms: C28_38  and  O10_39 
REMARK    5  A    between atoms: C34_47  and  C35_48 
REMARK    6  A    between atoms: C35_48  and  C36_49 
REMARK    7  A    between atoms: C36_49  and  C37_50 
REMARK    8  A    between atoms: C39_52  and  O12_53 
REMARK    9  A    between atoms: C40_54  and  O13_55 
ROOT
HETATM    1  C1  RAP  6544      -0.489  34.938 228.637  1.00 20.00     0.282 C 
HETATM    2  O1  RAP  6544      -0.969  33.742 229.238  1.00 20.00    -0.314 OA
HETATM    3  O2  RAP  6544       0.684  35.249 228.829  1.00 20.00    -0.263 OA
HETATM    4  C2  RAP  6544      -1.371  35.808 227.743  1.00 20.00     0.187 C 
HETATM    5  C3  RAP  6544      -1.197  37.283 228.071  1.00 20.00     0.035 C 
HETATM    6  C4  RAP  6544      -1.887  37.708 229.359  1.00 20.00     0.004 C 
HETATM    7  C5  RAP  6544      -3.350  37.317 229.263  1.00 20.00     0.020 C 
HETATM    8  C6  RAP  6544      -3.494  35.843 229.041  1.00 20.00     0.127 C 
HETATM    9  N7  RAP  6544      -2.806  35.509 227.784  1.00 20.00    -0.331 N 
HETATM   10  C8  RAP  6544      -3.384  34.808 226.795  1.00 20.00     0.296 C 
HETATM   11  O3  RAP  6544      -2.693  34.495 225.817  1.00 20.00    -0.264 OA
HETATM   12  C9  RAP  6544      -4.758  34.483 226.785  1.00 20.00     0.278 C 
HETATM   13  O4  RAP  6544      -5.565  35.297 226.319  1.00 20.00    -0.281 OA
HETATM   14  C10 RAP  6544      -5.293  33.146 227.328  1.00 20.00     0.238 C 
HETATM   15  O5  RAP  6544      -5.263  33.274 228.732  1.00 20.00    -0.343 OA
HETATM   16  C11 RAP  6544      -4.417  31.898 226.901  1.00 20.00     0.053 C 
HETATM   17  C12 RAP  6544      -4.800  30.641 227.716  1.00 20.00     0.013 C 
HETATM   18  C13 RAP  6544      -4.840  30.961 229.203  1.00 20.00     0.033 C 
HETATM   19  C14 RAP  6544      -5.643  32.215 229.534  1.00 20.00     0.128 C 
HETATM   20  C15 RAP  6544      -5.328  32.667 230.949  1.00 20.00     0.068 C 
HETATM   21  C16 RAP  6544      -5.845  31.785 232.080  1.00 20.00     0.152 C 
HETATM   22  C17 RAP  6544      -5.433  32.324 233.433  1.00 20.00    -0.055 C 
HETATM   23  C18 RAP  6544      -4.584  31.615 234.164  1.00 20.00     0.005 C 
HETATM   24  C19 RAP  6544      -4.070  32.019 235.480  1.00 20.00     0.000 C 
HETATM   25  C20 RAP  6544      -3.264  31.197 236.138  1.00 20.00    -0.000 C 
HETATM   26  C21 RAP  6544      -2.641  31.594 237.414  1.00 20.00    -0.004 C 
HETATM   27  C22 RAP  6544      -1.685  30.878 237.975  1.00 20.00    -0.022 C 
HETATM   28  C23 RAP  6544      -0.934  31.291 239.222  1.00 20.00     0.005 C 
HETATM   29  C24 RAP  6544       0.541  31.296 238.859  1.00 20.00     0.020 C 
HETATM   30  C25 RAP  6544       0.953  32.098 237.639  1.00 20.00     0.055 C 
HETATM   31  C26 RAP  6544       2.309  31.638 237.121  1.00 20.00     0.162 C 
HETATM   32  O8  RAP  6544       3.357  32.099 237.569  1.00 20.00    -0.295 OA
HETATM   33  C27 RAP  6544       2.300  30.588 236.015  1.00 20.00     0.223 C 
HETATM   34  C28 RAP  6544       2.119  31.191 234.585  1.00 20.00     0.183 C 
HETATM   35  C29 RAP  6544       0.652  31.500 234.227  1.00 20.00    -0.056 C 
HETATM   36  C30 RAP  6544       0.180  32.739 234.102  1.00 20.00    -0.010 C 
HETATM   37  C31 RAP  6544      -1.226  33.220 233.713  1.00 20.00     0.074 C 
HETATM   38  C32 RAP  6544      -1.223  33.694 232.260  1.00 20.00     0.136 C 
HETATM   39  O11 RAP  6544      -1.215  34.892 231.960  1.00 20.00    -0.297 OA
HETATM   40  C33 RAP  6544      -1.170  32.593 231.207  1.00 20.00     0.112 C 
HETATM   41  C34 RAP  6544      -0.223  32.926 230.072  1.00 20.00     0.142 C 
HETATM   42  C43 RAP  6544      -4.409  31.582 225.377  1.00 20.00     0.016 C 
HETATM   43  C44 RAP  6544      -6.080  33.657 233.845  1.00 20.00     0.046 C 
HETATM   44  C45 RAP  6544      -1.204  30.326 240.366  1.00 20.00     0.014 C 
HETATM   45  C46 RAP  6544       0.961  33.602 237.927  1.00 20.00     0.018 C 
HETATM   46  C47 RAP  6544      -0.217  30.270 234.044  1.00 20.00     0.046 C 
HETATM   47  C48 RAP  6544      -1.628  34.381 234.637  1.00 20.00     0.022 C 
ENDROOT
BRANCH  41  48
HETATM   48  C35 RAP  6544       0.294  31.776 229.185  1.00 20.00     0.012 C 
HETATM   49  C49 RAP  6544       0.729  30.588 229.994  1.00 20.00     0.012 C 
BRANCH  48  50
HETATM   50  C36 RAP  6544       1.414  32.227 228.251  1.00 20.00     0.011 C 
BRANCH  50  51
HETATM   51  C37 RAP  6544       1.486  31.568 226.872  1.00 20.00    -0.012 C 
HETATM   52  C42 RAP  6544       2.749  30.750 226.602  1.00 20.00     0.007 C 
HETATM   53  C41 RAP  6544       2.729  30.085 225.232  1.00 20.00     0.035 C 
HETATM   54  C40 RAP  6544       2.485  31.123 224.119  1.00 20.00     0.147 C 
HETATM   55  C39 RAP  6544       1.218  32.013 224.371  1.00 20.00     0.150 C 
HETATM   56  C38 RAP  6544       1.277  32.619 225.775  1.00 20.00     0.039 C 
BRANCH  54  57
HETATM   57  O13 RAP  6544       2.337  30.445 222.873  1.00 20.00    -0.393 OA
ATOM     58  H13 RAP  6544       2.117  29.536 223.038  1.00  0.00     0.210 HD
ENDBRANCH  54  57
BRANCH  55  59
HETATM   59  O12 RAP  6544       1.192  33.092 223.472  1.00 20.00    -0.388 OA
HETATM   60  C52 RAP  6544       2.327  33.886 223.417  1.00 20.00     0.202 C 
ENDBRANCH  55  59
ENDBRANCH  50  51
ENDBRANCH  48  50
ENDBRANCH  41  48
BRANCH  34  61
HETATM   61  O10 RAP  6544       2.898  32.394 234.521  1.00 20.00    -0.388 OA
ATOM     62  H10 RAP  6544       2.305  33.108 234.322  1.00  0.00     0.210 HD
ENDBRANCH  34  61
BRANCH  33  63
HETATM   63  O9  RAP  6544       3.535  29.923 236.018  1.00 20.00    -0.380 OA
HETATM   64  C51 RAP  6544       4.068  29.657 237.268  1.00 20.00     0.202 C 
ENDBRANCH  33  63
BRANCH  14  65
HETATM   65  O6  RAP  6544      -6.630  32.958 226.856  1.00 20.00    -0.359 OA
ATOM     66  H6  RAP  6544      -6.751  32.043 226.636  1.00  0.00     0.213 HD
ENDBRANCH  14  65
BRANCH  21  67
HETATM   67  O7  RAP  6544      -7.235  31.756 231.996  1.00 20.00    -0.386 OA
HETATM   68  C50 RAP  6544      -7.865  30.646 232.552  1.00 20.00     0.202 C 
ENDBRANCH  21  67
TORSDOF 9
ENDMDL
MODEL 8
REMARK VINA RESULT:      -5.0      3.523      9.770
REMARK  9 active torsions:
REMARK  status: ('A' for Active; 'I' for Inactive)
REMARK    1  A    between atoms: C10_14  and  O6_16 
REMARK    2  A    between atoms: C16_23  and  O7_24 
REMARK    3  A    between atoms: C27_36  and  O9_37 
REMARK    4  A    between atoms: C28_38  and  O10_39 
REMARK    5  A    between atoms: C34_47  and  C35_48 
REMARK    6  A    between atoms: C35_48  and  C36_49 
REMARK    7  A    between atoms: C36_49  and  C37_50 
REMARK    8  A    between atoms: C39_52  and  O12_53 
REMARK    9  A    between atoms: C40_54  and  O13_55 
ROOT
HETATM    1  C1  RAP  6544      -1.975  36.486 227.316  1.00 20.00     0.282 C 
HETATM    2  O1  RAP  6544      -1.753  35.234 227.952  1.00 20.00    -0.314 OA
HETATM    3  O2  RAP  6544      -1.341  37.459 227.719  1.00 20.00    -0.263 OA
HETATM    4  C2  RAP  6544      -2.937  36.640 226.139  1.00 20.00     0.187 C 
HETATM    5  C3  RAP  6544      -3.798  37.885 226.294  1.00 20.00     0.035 C 
HETATM    6  C4  RAP  6544      -4.905  37.736 227.327  1.00 20.00     0.004 C 
HETATM    7  C5  RAP  6544      -5.732  36.517 226.963  1.00 20.00     0.020 C 
HETATM    8  C6  RAP  6544      -4.877  35.288 226.916  1.00 20.00     0.127 C 
HETATM    9  N7  RAP  6544      -3.834  35.504 225.901  1.00 20.00    -0.331 N 
HETATM   10  C8  RAP  6544      -3.579  34.632 224.913  1.00 20.00     0.296 C 
HETATM   11  O3  RAP  6544      -2.620  34.857 224.164  1.00 20.00    -0.264 OA
HETATM   12  C9  RAP  6544      -4.402  33.517 224.642  1.00 20.00     0.278 C 
HETATM   13  O4  RAP  6544      -5.384  33.658 223.903  1.00 20.00    -0.281 OA
HETATM   14  C10 RAP  6544      -4.119  32.122 225.229  1.00 20.00     0.238 C 
HETATM   15  O5  RAP  6544      -4.538  32.191 226.574  1.00 20.00    -0.343 OA
HETATM   16  C11 RAP  6544      -2.590  31.717 225.181  1.00 20.00     0.053 C 
HETATM   17  C12 RAP  6544      -2.313  30.471 226.054  1.00 20.00     0.013 C 
HETATM   18  C13 RAP  6544      -2.923  30.642 227.437  1.00 20.00     0.033 C 
HETATM   19  C14 RAP  6544      -4.378  31.101 227.408  1.00 20.00     0.128 C 
HETATM   20  C15 RAP  6544      -4.785  31.601 228.783  1.00 20.00     0.068 C 
HETATM   21  C16 RAP  6544      -4.920  30.550 229.879  1.00 20.00     0.152 C 
HETATM   22  C17 RAP  6544      -5.293  31.181 231.204  1.00 20.00    -0.055 C 
HETATM   23  C18 RAP  6544      -4.413  31.137 232.195  1.00 20.00     0.005 C 
HETATM   24  C19 RAP  6544      -4.617  31.728 233.525  1.00 20.00     0.000 C 
HETATM   25  C20 RAP  6544      -3.681  31.571 234.450  1.00 20.00    -0.000 C 
HETATM   26  C21 RAP  6544      -3.789  32.228 235.767  1.00 20.00    -0.004 C 
HETATM   27  C22 RAP  6544      -2.781  32.251 236.618  1.00 20.00    -0.022 C 
HETATM   28  C23 RAP  6544      -2.796  33.001 237.933  1.00 20.00     0.005 C 
HETATM   29  C24 RAP  6544      -1.606  33.943 237.909  1.00 20.00     0.020 C 
HETATM   30  C25 RAP  6544      -1.476  34.869 236.714  1.00 20.00     0.055 C 
HETATM   31  C26 RAP  6544      -0.049  35.381 236.577  1.00 20.00     0.162 C 
HETATM   32  O8  RAP  6544       0.333  36.382 237.180  1.00 20.00    -0.295 OA
HETATM   33  C27 RAP  6544       0.874  34.598 235.650  1.00 20.00     0.223 C 
HETATM   34  C28 RAP  6544       0.738  35.003 234.147  1.00 20.00     0.183 C 
HETATM   35  C29 RAP  6544      -0.454  34.334 233.434  1.00 20.00    -0.056 C 
HETATM   36  C30 RAP  6544      -1.535  35.006 233.040  1.00 20.00    -0.010 C 
HETATM   37  C31 RAP  6544      -2.778  34.510 232.287  1.00 20.00     0.074 C 
HETATM   38  C32 RAP  6544      -2.692  34.931 230.821  1.00 20.00     0.136 C 
HETATM   39  O11 RAP  6544      -3.345  35.878 230.370  1.00 20.00    -0.297 OA
HETATM   40  C33 RAP  6544      -1.705  34.146 229.965  1.00 20.00     0.112 C 
HETATM   41  C34 RAP  6544      -0.911  35.040 229.034  1.00 20.00     0.142 C 
HETATM   42  C43 RAP  6544      -1.997  31.530 223.754  1.00 20.00     0.016 C 
HETATM   43  C44 RAP  6544      -6.701  31.796 231.278  1.00 20.00     0.046 C 
HETATM   44  C45 RAP  6544      -2.699  32.041 239.109  1.00 20.00     0.014 C 
HETATM   45  C46 RAP  6544      -2.469  36.033 236.790  1.00 20.00     0.018 C 
HETATM   46  C47 RAP  6544      -0.299  32.838 233.231  1.00 20.00     0.046 C 
HETATM   47  C48 RAP  6544      -4.030  35.127 232.933  1.00 20.00     0.022 C 
ENDROOT
BRANCH  41  48
HETATM   48  C35 RAP  6544       0.410  34.501 228.449  1.00 20.00     0.012 C 
HETATM   49  C49 RAP  6544       1.598  35.301 228.900  1.00 20.00     0.012 C 
BRANCH  48  50
HETATM   50  C36 RAP  6544       0.372  34.414 226.925  1.00 20.00     0.011 C 
BRANCH  50  51
HETATM   51  C37 RAP  6544       1.348  33.446 226.253  1.00 20.00    -0.012 C 
HETATM   52  C42 RAP  6544       1.113  33.208 224.761  1.00 20.00     0.007 C 
HETATM   53  C41 RAP  6544       2.149  32.275 224.151  1.00 20.00     0.035 C 
HETATM   54  C40 RAP  6544       2.218  30.944 224.927  1.00 20.00     0.147 C 
HETATM   55  C39 RAP  6544       2.422  31.139 226.469  1.00 20.00     0.150 C 
HETATM   56  C38 RAP  6544       1.378  32.116 227.015  1.00 20.00     0.039 C 
BRANCH  54  57
HETATM   57  O13 RAP  6544       3.290  30.158 224.410  1.00 20.00    -0.393 OA
ATOM     58  H13 RAP  6544       3.867  29.913 225.124  1.00  0.00     0.210 HD
ENDBRANCH  54  57
BRANCH  55  59
HETATM   59  O12 RAP  6544       2.223  29.924 227.146  1.00 20.00    -0.388 OA
HETATM   60  C52 RAP  6544       1.358  29.947 228.229  1.00 20.00     0.202 C 
ENDBRANCH  55  59
ENDBRANCH  50  51
ENDBRANCH  48  50
ENDBRANCH  41  48
BRANCH  34  61
HETATM   61  O10 RAP  6544       0.596  36.429 234.095  1.00 20.00    -0.388 OA
ATOM     62  H10 RAP  6544      -0.244  36.619 233.696  1.00  0.00     0.210 HD
ENDBRANCH  34  61
BRANCH  33  63
HETATM   63  O9  RAP  6544       2.203  34.856 236.017  1.00 20.00    -0.380 OA
HETATM   64  C51 RAP  6544       2.890  33.786 236.566  1.00 20.00     0.202 C 
ENDBRANCH  33  63
BRANCH  14  65
HETATM   65  O6  RAP  6544      -4.880  31.153 224.502  1.00 20.00    -0.359 OA
ATOM     66  H6  RAP  6544      -5.727  31.526 224.290  1.00  0.00     0.213 HD
ENDBRANCH  14  65
BRANCH  21  67
HETATM   67  O7  RAP  6544      -5.918  29.658 229.494  1.00 20.00    -0.386 OA
HETATM   68  C50 RAP  6544      -6.870  30.143 228.603  1.00 20.00     0.202 C 
ENDBRANCH  21  67
TORSDOF 9
ENDMDL
