MODEL 1
REMARK VINA RESULT:      -6.3      0.000      0.000
REMARK  4 active torsions:
REMARK  status: ('A' for Active; 'I' for Inactive)
REMARK    1  A    between atoms: C17_5  and  N2_2 
REMARK    2  A    between atoms: C16_6  and  C17_5 
REMARK    3  A    between atoms: C15_7  and  C16_6 
REMARK    4  A    between atoms: C15_7  and  N1_8 
ROOT
HETATM    1  N1  DSM  3206       1.722  36.486 236.424  1.00 20.00    -0.346 N 
HETATM    2  C14 DSM  3206       1.477  35.490 235.405  1.00 20.00     0.041 A 
HETATM    3  C1  DSM  3206       1.724  35.724 234.014  1.00 20.00     0.030 A 
HETATM    4  C2  DSM  3206       1.461  34.703 233.055  1.00 20.00     0.002 A 
HETATM    5  C3  DSM  3206       1.009  33.448 233.487  1.00 20.00     0.001 A 
HETATM    6  C4  DSM  3206       0.780  33.227 234.836  1.00 20.00     0.009 A 
HETATM    7  C13 DSM  3206       1.036  34.217 235.816  1.00 20.00    -0.031 A 
HETATM    8  C5  DSM  3206       0.771  33.885 237.237  1.00 20.00     0.045 C 
HETATM    9  C6  DSM  3206       2.008  33.788 238.118  1.00 20.00     0.045 C 
HETATM   10  C12 DSM  3206       2.936  35.042 238.213  1.00 20.00    -0.031 A 
HETATM   11  C11 DSM  3206       2.779  36.287 237.416  1.00 20.00     0.041 A 
HETATM   12  C7  DSM  3206       4.005  34.996 239.128  1.00 20.00     0.009 A 
HETATM   13  C8  DSM  3206       4.902  36.046 239.304  1.00 20.00     0.001 A 
HETATM   14  C9  DSM  3206       4.769  37.225 238.568  1.00 20.00     0.002 A 
HETATM   15  C10 DSM  3206       3.718  37.343 237.628  1.00 20.00     0.030 A 
ENDROOT
BRANCH   1  16
HETATM   16  C15 DSM  3206       1.086  37.867 236.336  1.00 20.00     0.131 C 
BRANCH  16  17
HETATM   17  C16 DSM  3206      -0.321  38.056 236.970  1.00 20.00     0.048 C 
BRANCH  17  18
HETATM   18  C17 DSM  3206      -1.325  37.098 236.398  1.00 20.00     0.233 C 
BRANCH  18  19
HETATM   19  N2  DSM  3206      -1.400  37.144 234.905  1.00 20.00    -0.079 N 
HETATM   20  C18 DSM  3206      -2.018  35.925 234.355  1.00 20.00     0.266 C 
ATOM     21  H22 DSM  3206      -1.882  37.983 234.583  1.00  0.00     0.276 HD
ATOM     22  H21 DSM  3206      -0.484  37.317 234.492  1.00  0.00     0.276 HD
ENDBRANCH  18  19
ENDBRANCH  17  18
ENDBRANCH  16  17
ENDBRANCH   1  16
TORSDOF 4
ENDMDL
MODEL 2
REMARK VINA RESULT:      -6.1      2.321      4.793
REMARK  4 active torsions:
REMARK  status: ('A' for Active; 'I' for Inactive)
REMARK    1  A    between atoms: C17_5  and  N2_2 
REMARK    2  A    between atoms: C16_6  and  C17_5 
REMARK    3  A    between atoms: C15_7  and  C16_6 
REMARK    4  A    between atoms: C15_7  and  N1_8 
ROOT
HETATM    1  N1  DSM  3206       3.122  34.743 237.019  1.00 20.00    -0.346 N 
HETATM    2  C14 DSM  3206       1.966  35.606 236.931  1.00 20.00     0.041 A 
HETATM    3  C1  DSM  3206       0.640  35.111 236.716  1.00 20.00     0.030 A 
HETATM    4  C2  DSM  3206      -0.461  36.012 236.637  1.00 20.00     0.002 A 
HETATM    5  C3  DSM  3206      -0.247  37.385 236.823  1.00 20.00     0.001 A 
HETATM    6  C4  DSM  3206       1.040  37.856 237.038  1.00 20.00     0.009 A 
HETATM    7  C13 DSM  3206       2.155  36.988 237.129  1.00 20.00    -0.031 A 
HETATM    8  C5  DSM  3206       3.491  37.584 237.373  1.00 20.00     0.045 C 
HETATM    9  C6  DSM  3206       4.103  37.262 238.729  1.00 20.00     0.045 C 
HETATM   10  C12 DSM  3206       4.312  35.758 239.097  1.00 20.00    -0.031 A 
HETATM   11  C11 DSM  3206       3.848  34.604 238.282  1.00 20.00     0.041 A 
HETATM   12  C7  DSM  3206       4.996  35.466 240.292  1.00 20.00     0.009 A 
HETATM   13  C8  DSM  3206       5.242  34.168 240.731  1.00 20.00     0.001 A 
HETATM   14  C9  DSM  3206       4.819  33.071 239.978  1.00 20.00     0.002 A 
HETATM   15  C10 DSM  3206       4.124  33.288 238.765  1.00 20.00     0.030 A 
ENDROOT
BRANCH   1  16
HETATM   16  C15 DSM  3206       3.452  33.762 235.902  1.00 20.00     0.131 C 
BRANCH  16  17
HETATM   17  C16 DSM  3206       2.391  32.681 235.553  1.00 20.00     0.048 C 
BRANCH  17  18
HETATM   18  C17 DSM  3206       2.940  31.292 235.706  1.00 20.00     0.233 C 
BRANCH  18  19
HETATM   19  N2  DSM  3206       4.391  31.188 235.361  1.00 20.00    -0.079 N 
HETATM   20  C18 DSM  3206       5.137  30.423 236.375  1.00 20.00     0.266 C 
ATOM     21  H22 DSM  3206       4.524  30.798 234.428  1.00  0.00     0.276 HD
ATOM     22  H21 DSM  3206       4.804  32.108 235.210  1.00  0.00     0.276 HD
ENDBRANCH  18  19
ENDBRANCH  17  18
ENDBRANCH  16  17
ENDBRANCH   1  16
TORSDOF 4
ENDMDL
MODEL 3
REMARK VINA RESULT:      -6.1      2.093      5.326
REMARK  4 active torsions:
REMARK  status: ('A' for Active; 'I' for Inactive)
REMARK    1  A    between atoms: C17_5  and  N2_2 
REMARK    2  A    between atoms: C16_6  and  C17_5 
REMARK    3  A    between atoms: C15_7  and  C16_6 
REMARK    4  A    between atoms: C15_7  and  N1_8 
ROOT
HETATM    1  N1  DSM  3206       1.250  34.599 236.979  1.00 20.00    -0.346 N 
HETATM    2  C14 DSM  3206       2.325  35.128 237.787  1.00 20.00     0.041 A 
HETATM    3  C1  DSM  3206       3.246  34.295 238.499  1.00 20.00     0.030 A 
HETATM    4  C2  DSM  3206       4.285  34.876 239.282  1.00 20.00     0.002 A 
HETATM    5  C3  DSM  3206       4.435  36.269 239.308  1.00 20.00     0.001 A 
HETATM    6  C4  DSM  3206       3.544  37.070 238.610  1.00 20.00     0.009 A 
HETATM    7  C13 DSM  3206       2.503  36.525 237.818  1.00 20.00    -0.031 A 
HETATM    8  C5  DSM  3206       1.606  37.460 237.097  1.00 20.00     0.045 C 
HETATM    9  C6  DSM  3206       1.731  37.435 235.580  1.00 20.00     0.045 C 
HETATM   10  C12 DSM  3206       1.487  36.075 234.851  1.00 20.00    -0.031 A 
HETATM   11  C11 DSM  3206       1.262  34.769 235.526  1.00 20.00     0.041 A 
HETATM   12  C7  DSM  3206       1.475  36.081 233.444  1.00 20.00     0.009 A 
HETATM   13  C8  DSM  3206       1.270  34.935 232.679  1.00 20.00     0.001 A 
HETATM   14  C9  DSM  3206       1.053  33.700 233.293  1.00 20.00     0.002 A 
HETATM   15  C10 DSM  3206       1.052  33.618 234.706  1.00 20.00     0.030 A 
ENDROOT
BRANCH   1  16
HETATM   16  C15 DSM  3206       0.231  33.632 237.569  1.00 20.00     0.131 C 
BRANCH  16  17
HETATM   17  C16 DSM  3206      -1.270  34.029 237.493  1.00 20.00     0.048 C 
BRANCH  17  18
HETATM   18  C17 DSM  3206      -2.152  33.000 238.137  1.00 20.00     0.233 C 
BRANCH  18  19
HETATM   19  N2  DSM  3206      -2.580  33.371 239.521  1.00 20.00    -0.079 N 
HETATM   20  C18 DSM  3206      -2.602  32.200 240.415  1.00 20.00     0.266 C 
ATOM     21  H22 DSM  3206      -2.001  34.119 239.901  1.00  0.00     0.276 HD
ATOM     22  H21 DSM  3206      -3.479  33.852 239.516  1.00  0.00     0.276 HD
ENDBRANCH  18  19
ENDBRANCH  17  18
ENDBRANCH  16  17
ENDBRANCH   1  16
TORSDOF 4
ENDMDL
MODEL 4
REMARK VINA RESULT:      -6.0      2.084      3.562
REMARK  4 active torsions:
REMARK  status: ('A' for Active; 'I' for Inactive)
REMARK    1  A    between atoms: C17_5  and  N2_2 
REMARK    2  A    between atoms: C16_6  and  C17_5 
REMARK    3  A    between atoms: C15_7  and  C16_6 
REMARK    4  A    between atoms: C15_7  and  N1_8 
ROOT
HETATM    1  N1  DSM  3206       0.921  34.876 233.611  1.00 20.00    -0.346 N 
HETATM    2  C14 DSM  3206       0.911  34.341 232.269  1.00 20.00     0.041 A 
HETATM    3  C1  DSM  3206       1.258  35.120 231.118  1.00 20.00     0.030 A 
HETATM    4  C2  DSM  3206       1.228  34.537 229.819  1.00 20.00     0.002 A 
HETATM    5  C3  DSM  3206       0.908  33.179 229.676  1.00 20.00     0.001 A 
HETATM    6  C4  DSM  3206       0.580  32.429 230.796  1.00 20.00     0.009 A 
HETATM    7  C13 DSM  3206       0.606  32.976 232.102  1.00 20.00    -0.031 A 
HETATM    8  C5  DSM  3206       0.251  32.093 233.240  1.00 20.00     0.045 C 
HETATM    9  C6  DSM  3206       1.399  31.766 234.185  1.00 20.00     0.045 C 
HETATM   10  C12 DSM  3206       2.137  32.957 234.876  1.00 20.00    -0.031 A 
HETATM   11  C11 DSM  3206       1.894  34.396 234.593  1.00 20.00     0.041 A 
HETATM   12  C7  DSM  3206       3.109  32.648 235.846  1.00 20.00     0.009 A 
HETATM   13  C8  DSM  3206       3.838  33.619 236.530  1.00 20.00     0.001 A 
HETATM   14  C9  DSM  3206       3.621  34.975 236.282  1.00 20.00     0.002 A 
HETATM   15  C10 DSM  3206       2.659  35.360 235.318  1.00 20.00     0.030 A 
ENDROOT
BRANCH   1  16
HETATM   16  C15 DSM  3206       0.118  36.122 233.962  1.00 20.00     0.131 C 
BRANCH  16  17
HETATM   17  C16 DSM  3206      -1.180  35.933 234.797  1.00 20.00     0.048 C 
BRANCH  17  18
HETATM   18  C17 DSM  3206      -1.117  36.675 236.100  1.00 20.00     0.233 C 
BRANCH  18  19
HETATM   19  N2  DSM  3206      -0.145  37.810 236.088  1.00 20.00    -0.079 N 
HETATM   20  C18 DSM  3206       0.714  37.803 237.285  1.00 20.00     0.266 C 
ATOM     21  H22 DSM  3206       0.409  37.816 235.232  1.00  0.00     0.276 HD
ATOM     22  H21 DSM  3206      -0.620  38.706 235.976  1.00  0.00     0.276 HD
ENDBRANCH  18  19
ENDBRANCH  17  18
ENDBRANCH  16  17
ENDBRANCH   1  16
TORSDOF 4
ENDMDL
MODEL 5
REMARK VINA RESULT:      -6.0      1.713      3.783
REMARK  4 active torsions:
REMARK  status: ('A' for Active; 'I' for Inactive)
REMARK    1  A    between atoms: C17_5  and  N2_2 
REMARK    2  A    between atoms: C16_6  and  C17_5 
REMARK    3  A    between atoms: C15_7  and  C16_6 
REMARK    4  A    between atoms: C15_7  and  N1_8 
ROOT
HETATM    1  N1  DSM  3206       1.625  34.421 237.038  1.00 20.00    -0.346 N 
HETATM    2  C14 DSM  3206       0.238  34.806 236.918  1.00 20.00     0.041 A 
HETATM    3  C1  DSM  3206      -0.836  34.028 237.460  1.00 20.00     0.030 A 
HETATM    4  C2  DSM  3206      -2.185  34.458 237.307  1.00 20.00     0.002 A 
HETATM    5  C3  DSM  3206      -2.455  35.678 236.670  1.00 20.00     0.001 A 
HETATM    6  C4  DSM  3206      -1.410  36.430 236.155  1.00 20.00     0.009 A 
HETATM    7  C13 DSM  3206      -0.057  36.034 236.293  1.00 20.00    -0.031 A 
HETATM    8  C5  DSM  3206       0.994  36.909 235.719  1.00 20.00     0.045 C 
HETATM    9  C6  DSM  3206       1.891  37.594 236.740  1.00 20.00     0.045 C 
HETATM   10  C12 DSM  3206       2.687  36.690 237.735  1.00 20.00    -0.031 A 
HETATM   11  C11 DSM  3206       2.547  35.214 237.851  1.00 20.00     0.041 A 
HETATM   12  C7  DSM  3206       3.614  37.316 238.589  1.00 20.00     0.009 A 
HETATM   13  C8  DSM  3206       4.381  36.622 239.521  1.00 20.00     0.001 A 
HETATM   14  C9  DSM  3206       4.268  35.235 239.643  1.00 20.00     0.002 A 
HETATM   15  C10 DSM  3206       3.355  34.538 238.817  1.00 20.00     0.030 A 
ENDROOT
BRANCH   1  16
HETATM   16  C15 DSM  3206       2.103  33.057 236.556  1.00 20.00     0.131 C 
BRANCH  16  17
HETATM   17  C16 DSM  3206       2.580  32.939 235.081  1.00 20.00     0.048 C 
BRANCH  17  18
HETATM   18  C17 DSM  3206       1.459  32.549 234.162  1.00 20.00     0.233 C 
BRANCH  18  19
HETATM   19  N2  DSM  3206       0.823  33.715 233.477  1.00 20.00    -0.079 N 
HETATM   20  C18 DSM  3206      -0.648  33.632 233.513  1.00 20.00     0.266 C 
ATOM     21  H22 DSM  3206       1.155  34.599 233.862  1.00  0.00     0.276 HD
ATOM     22  H21 DSM  3206       1.167  33.819 232.522  1.00  0.00     0.276 HD
ENDBRANCH  18  19
ENDBRANCH  17  18
ENDBRANCH  16  17
ENDBRANCH   1  16
TORSDOF 4
ENDMDL
MODEL 6
REMARK VINA RESULT:      -6.0      1.381      3.701
REMARK  4 active torsions:
REMARK  status: ('A' for Active; 'I' for Inactive)
REMARK    1  A    between atoms: C17_5  and  N2_2 
REMARK    2  A    between atoms: C16_6  and  C17_5 
REMARK    3  A    between atoms: C15_7  and  C16_6 
REMARK    4  A    between atoms: C15_7  and  N1_8 
ROOT
HETATM    1  N1  DSM  3206       1.547  35.069 235.782  1.00 20.00    -0.346 N 
HETATM    2  C14 DSM  3206       0.499  35.980 236.181  1.00 20.00     0.041 A 
HETATM    3  C1  DSM  3206      -0.892  35.649 236.103  1.00 20.00     0.030 A 
HETATM    4  C2  DSM  3206      -1.880  36.592 236.510  1.00 20.00     0.002 A 
HETATM    5  C3  DSM  3206      -1.482  37.827 237.040  1.00 20.00     0.001 A 
HETATM    6  C4  DSM  3206      -0.132  38.137 237.120  1.00 20.00     0.009 A 
HETATM    7  C13 DSM  3206       0.875  37.223 236.729  1.00 20.00    -0.031 A 
HETATM    8  C5  DSM  3206       2.293  37.639 236.862  1.00 20.00     0.045 C 
HETATM    9  C6  DSM  3206       3.091  36.884 237.915  1.00 20.00     0.045 C 
HETATM   10  C12 DSM  3206       3.189  35.330 237.781  1.00 20.00    -0.031 A 
HETATM   11  C11 DSM  3206       2.462  34.509 236.777  1.00 20.00     0.041 A 
HETATM   12  C7  DSM  3206       4.033  34.649 238.678  1.00 20.00     0.009 A 
HETATM   13  C8  DSM  3206       4.203  33.267 238.663  1.00 20.00     0.001 A 
HETATM   14  C9  DSM  3206       3.533  32.479 237.725  1.00 20.00     0.002 A 
HETATM   15  C10 DSM  3206       2.667  33.095 236.792  1.00 20.00     0.030 A 
ENDROOT
BRANCH   1  16
HETATM   16  C15 DSM  3206       1.563  34.461 234.386  1.00 20.00     0.131 C 
BRANCH  16  17
HETATM   17  C16 DSM  3206       1.471  35.430 233.174  1.00 20.00     0.048 C 
BRANCH  17  18
HETATM   18  C17 DSM  3206       0.119  35.381 232.522  1.00 20.00     0.233 C 
BRANCH  18  19
HETATM   19  N2  DSM  3206      -0.688  36.620 232.742  1.00 20.00    -0.079 N 
HETATM   20  C18 DSM  3206      -2.132  36.358 232.610  1.00 20.00     0.266 C 
ATOM     21  H22 DSM  3206      -0.469  37.052 233.639  1.00  0.00     0.276 HD
ATOM     22  H21 DSM  3206      -0.388  37.374 232.125  1.00  0.00     0.276 HD
ENDBRANCH  18  19
ENDBRANCH  17  18
ENDBRANCH  16  17
ENDBRANCH   1  16
TORSDOF 4
ENDMDL
MODEL 7
REMARK VINA RESULT:      -5.9      2.313      4.699
REMARK  4 active torsions:
REMARK  status: ('A' for Active; 'I' for Inactive)
REMARK    1  A    between atoms: C17_5  and  N2_2 
REMARK    2  A    between atoms: C16_6  and  C17_5 
REMARK    3  A    between atoms: C15_7  and  C16_6 
REMARK    4  A    between atoms: C15_7  and  N1_8 
ROOT
HETATM    1  N1  DSM  3206       1.693  34.405 237.035  1.00 20.00    -0.346 N 
HETATM    2  C14 DSM  3206       0.312  34.804 236.890  1.00 20.00     0.041 A 
HETATM    3  C1  DSM  3206      -0.779  34.030 237.403  1.00 20.00     0.030 A 
HETATM    4  C2  DSM  3206      -2.121  34.474 237.228  1.00 20.00     0.002 A 
HETATM    5  C3  DSM  3206      -2.367  35.702 236.597  1.00 20.00     0.001 A 
HETATM    6  C4  DSM  3206      -1.306  36.449 236.109  1.00 20.00     0.009 A 
HETATM    7  C13 DSM  3206       0.041  36.040 236.271  1.00 20.00    -0.031 A 
HETATM    8  C5  DSM  3206       1.110  36.911 235.727  1.00 20.00     0.045 C 
HETATM    9  C6  DSM  3206       1.993  37.578 236.772  1.00 20.00     0.045 C 
HETATM   10  C12 DSM  3206       2.760  36.658 237.774  1.00 20.00    -0.031 A 
HETATM   11  C11 DSM  3206       2.605  35.182 237.874  1.00 20.00     0.041 A 
HETATM   12  C7  DSM  3206       3.675  37.268 238.653  1.00 20.00     0.009 A 
HETATM   13  C8  DSM  3206       4.417  36.558 239.593  1.00 20.00     0.001 A 
HETATM   14  C9  DSM  3206       4.289  35.172 239.700  1.00 20.00     0.002 A 
HETATM   15  C10 DSM  3206       3.388  34.490 238.849  1.00 20.00     0.030 A 
ENDROOT
BRANCH   1  16
HETATM   16  C15 DSM  3206       2.168  33.042 236.550  1.00 20.00     0.131 C 
BRANCH  16  17
HETATM   17  C16 DSM  3206       3.371  33.004 235.566  1.00 20.00     0.048 C 
BRANCH  17  18
HETATM   18  C17 DSM  3206       3.879  31.606 235.359  1.00 20.00     0.233 C 
BRANCH  18  19
HETATM   19  N2  DSM  3206       4.067  30.851 236.635  1.00 20.00    -0.079 N 
HETATM   20  C18 DSM  3206       5.331  31.211 237.300  1.00 20.00     0.266 C 
ATOM     21  H22 DSM  3206       3.270  30.972 237.260  1.00  0.00     0.276 HD
ATOM     22  H21 DSM  3206       3.999  29.844 236.485  1.00  0.00     0.276 HD
ENDBRANCH  18  19
ENDBRANCH  17  18
ENDBRANCH  16  17
ENDBRANCH   1  16
TORSDOF 4
ENDMDL
MODEL 8
REMARK VINA RESULT:      -5.9      1.481      4.502
REMARK  4 active torsions:
REMARK  status: ('A' for Active; 'I' for Inactive)
REMARK    1  A    between atoms: C17_5  and  N2_2 
REMARK    2  A    between atoms: C16_6  and  C17_5 
REMARK    3  A    between atoms: C15_7  and  C16_6 
REMARK    4  A    between atoms: C15_7  and  N1_8 
ROOT
HETATM    1  N1  DSM  3206       1.297  35.989 236.169  1.00 20.00    -0.346 N 
HETATM    2  C14 DSM  3206       2.404  36.119 237.088  1.00 20.00     0.041 A 
HETATM    3  C1  DSM  3206       2.896  37.386 237.539  1.00 20.00     0.030 A 
HETATM    4  C2  DSM  3206       3.994  37.450 238.445  1.00 20.00     0.002 A 
HETATM    5  C3  DSM  3206       4.557  36.263 238.936  1.00 20.00     0.001 A 
HETATM    6  C4  DSM  3206       4.070  35.040 238.500  1.00 20.00     0.009 A 
HETATM    7  C13 DSM  3206       2.978  34.940 237.604  1.00 20.00    -0.031 A 
HETATM    8  C5  DSM  3206       2.519  33.588 237.203  1.00 20.00     0.045 C 
HETATM    9  C6  DSM  3206       1.141  33.195 237.717  1.00 20.00     0.045 C 
HETATM   10  C12 DSM  3206      -0.068  34.108 237.335  1.00 20.00    -0.031 A 
HETATM   11  C11 DSM  3206       0.031  35.403 236.610  1.00 20.00     0.041 A 
HETATM   12  C7  DSM  3206      -1.356  33.673 237.700  1.00 20.00     0.009 A 
HETATM   13  C8  DSM  3206      -2.512  34.397 237.420  1.00 20.00     0.001 A 
HETATM   14  C9  DSM  3206      -2.440  35.613 236.737  1.00 20.00     0.002 A 
HETATM   15  C10 DSM  3206      -1.178  36.113 236.339  1.00 20.00     0.030 A 
ENDROOT
BRANCH   1  16
HETATM   16  C15 DSM  3206       1.316  36.690 234.817  1.00 20.00     0.131 C 
BRANCH  16  17
HETATM   17  C16 DSM  3206       1.561  35.818 233.554  1.00 20.00     0.048 C 
BRANCH  17  18
HETATM   18  C17 DSM  3206       0.293  35.574 232.789  1.00 20.00     0.233 C 
BRANCH  18  19
HETATM   19  N2  DSM  3206      -0.708  36.675 232.939  1.00 20.00    -0.079 N 
HETATM   20  C18 DSM  3206      -1.739  36.619 231.888  1.00 20.00     0.266 C 
ATOM     21  H22 DSM  3206      -1.125  36.674 233.870  1.00  0.00     0.276 HD
ATOM     22  H21 DSM  3206      -0.256  37.588 232.969  1.00  0.00     0.276 HD
ENDBRANCH  18  19
ENDBRANCH  17  18
ENDBRANCH  16  17
ENDBRANCH   1  16
TORSDOF 4
ENDMDL
MODEL 9
REMARK VINA RESULT:      -5.8      1.807      3.704
REMARK  4 active torsions:
REMARK  status: ('A' for Active; 'I' for Inactive)
REMARK    1  A    between atoms: C17_5  and  N2_2 
REMARK    2  A    between atoms: C16_6  and  C17_5 
REMARK    3  A    between atoms: C15_7  and  C16_6 
REMARK    4  A    between atoms: C15_7  and  N1_8 
ROOT
HETATM    1  N1  DSM  3206       1.085  34.630 235.798  1.00 20.00    -0.346 N 
HETATM    2  C14 DSM  3206      -0.138  34.260 236.473  1.00 20.00     0.041 A 
HETATM    3  C1  DSM  3206      -0.370  32.948 236.999  1.00 20.00     0.030 A 
HETATM    4  C2  DSM  3206      -1.598  32.642 237.654  1.00 20.00     0.002 A 
HETATM    5  C3  DSM  3206      -2.558  33.648 237.829  1.00 20.00     0.001 A 
HETATM    6  C4  DSM  3206      -2.323  34.918 237.324  1.00 20.00     0.009 A 
HETATM    7  C13 DSM  3206      -1.112  35.258 236.673  1.00 20.00    -0.031 A 
HETATM    8  C5  DSM  3206      -0.946  36.645 236.175  1.00 20.00     0.045 C 
HETATM    9  C6  DSM  3206       0.108  37.469 236.901  1.00 20.00     0.045 C 
HETATM   10  C12 DSM  3206       1.571  36.923 236.924  1.00 20.00    -0.031 A 
HETATM   11  C11 DSM  3206       2.001  35.599 236.401  1.00 20.00     0.041 A 
HETATM   12  C7  DSM  3206       2.567  37.747 237.481  1.00 20.00     0.009 A 
HETATM   13  C8  DSM  3206       3.907  37.374 237.563  1.00 20.00     0.001 A 
HETATM   14  C9  DSM  3206       4.331  36.137 237.074  1.00 20.00     0.002 A 
HETATM   15  C10 DSM  3206       3.384  35.255 236.500  1.00 20.00     0.030 A 
ENDROOT
BRANCH   1  16
HETATM   16  C15 DSM  3206       1.584  33.840 234.595  1.00 20.00     0.131 C 
BRANCH  16  17
HETATM   17  C16 DSM  3206       0.829  34.021 233.249  1.00 20.00     0.048 C 
BRANCH  17  18
HETATM   18  C17 DSM  3206       0.622  35.470 232.915  1.00 20.00     0.233 C 
BRANCH  18  19
HETATM   19  N2  DSM  3206      -0.491  35.700 231.944  1.00 20.00    -0.079 N 
HETATM   20  C18 DSM  3206      -1.511  36.611 232.492  1.00 20.00     0.266 C 
ATOM     21  H22 DSM  3206      -0.139  36.032 231.046  1.00  0.00     0.276 HD
ATOM     22  H21 DSM  3206      -0.904  34.819 231.636  1.00  0.00     0.276 HD
ENDBRANCH  18  19
ENDBRANCH  17  18
ENDBRANCH  16  17
ENDBRANCH   1  16
TORSDOF 4
ENDMDL
