MODEL 1
REMARK VINA RESULT:      -5.7      0.000      0.000
REMARK  4 active torsions:
REMARK  status: ('A' for Active; 'I' for Inactive)
REMARK    1  A    between atoms: C1_1  and  C6_6 
REMARK    2  A    between atoms: C11_11  and  C2_2 
REMARK    3  A    between atoms: C2_2  and  C3_3 
REMARK    4  A    between atoms: C6_6  and  C8_8 
ROOT
HETATM    1  C8  IBP  4409       0.513  40.848 227.059  1.00 20.00    -0.044 A 
HETATM    2  C9  IBP  4409      -0.559  40.946 226.172  1.00 20.00     0.009 A 
HETATM    3  C10 IBP  4409      -1.812  40.412 226.502  1.00 20.00     0.011 A 
HETATM    4  C11 IBP  4409      -1.979  39.767 227.728  1.00 20.00    -0.040 A 
HETATM    5  C12 IBP  4409      -0.905  39.673 228.593  1.00 20.00     0.011 A 
HETATM    6  C13 IBP  4409       0.329  40.200 228.268  1.00 20.00     0.009 A 
ENDROOT
BRANCH   1   7
HETATM    7  C6  IBP  4409       1.857  41.395 226.749  1.00 20.00     0.115 C 
HETATM    8  C7  IBP  4409       2.903  40.358 227.134  1.00 20.00     0.026 C 
BRANCH   7   9
HETATM    9  C1  IBP  4409       2.123  42.668 227.513  1.00 20.00     0.181 C 
HETATM   10  O1  IBP  4409       3.126  42.774 228.204  1.00 20.00    -0.647 OA
HETATM   11  O2  IBP  4409       1.341  43.605 227.462  1.00 20.00    -0.647 OA
ENDBRANCH   7   9
ENDBRANCH   1   7
BRANCH   4  12
HETATM   12  C2  IBP  4409      -3.218  39.137 228.254  1.00 20.00    -0.012 C 
BRANCH  12  13
HETATM   13  C3  IBP  4409      -3.934  37.860 227.872  1.00 20.00     0.001 C 
HETATM   14  C4  IBP  4409      -4.783  38.100 226.625  1.00 20.00     0.013 C 
HETATM   15  C5  IBP  4409      -2.971  36.694 227.686  1.00 20.00     0.013 C 
ENDBRANCH  12  13
ENDBRANCH   4  12
TORSDOF 4
ENDMDL
MODEL 2
REMARK VINA RESULT:      -5.3      3.222      4.177
REMARK  4 active torsions:
REMARK  status: ('A' for Active; 'I' for Inactive)
REMARK    1  A    between atoms: C1_1  and  C6_6 
REMARK    2  A    between atoms: C11_11  and  C2_2 
REMARK    3  A    between atoms: C2_2  and  C3_3 
REMARK    4  A    between atoms: C6_6  and  C8_8 
ROOT
HETATM    1  C8  IBP  4409       0.683  39.267 227.549  1.00 20.00    -0.044 A 
HETATM    2  C9  IBP  4409      -0.313  38.525 228.184  1.00 20.00     0.009 A 
HETATM    3  C10 IBP  4409      -0.147  37.152 228.412  1.00 20.00     0.011 A 
HETATM    4  C11 IBP  4409       1.024  36.525 227.985  1.00 20.00    -0.040 A 
HETATM    5  C12 IBP  4409       1.999  37.273 227.351  1.00 20.00     0.011 A 
HETATM    6  C13 IBP  4409       1.836  38.626 227.129  1.00 20.00     0.009 A 
ENDROOT
BRANCH   1   7
HETATM    7  C6  IBP  4409       0.549  40.721 227.285  1.00 20.00     0.115 C 
HETATM    8  C7  IBP  4409       1.827  41.213 226.620  1.00 20.00     0.026 C 
BRANCH   7   9
HETATM    9  C1  IBP  4409       0.328  41.495 228.560  1.00 20.00     0.181 C 
HETATM   10  O1  IBP  4409       1.269  41.749 229.298  1.00 20.00    -0.647 OA
HETATM   11  O2  IBP  4409      -0.789  41.871 228.879  1.00 20.00    -0.647 OA
ENDBRANCH   7   9
ENDBRANCH   1   7
BRANCH   4  12
HETATM   12  C2  IBP  4409       1.382  35.090 228.128  1.00 20.00    -0.012 C 
BRANCH  12  13
HETATM   13  C3  IBP  4409       1.174  34.113 229.264  1.00 20.00     0.001 C 
HETATM   14  C4  IBP  4409       1.392  34.822 230.599  1.00 20.00     0.013 C 
HETATM   15  C5  IBP  4409      -0.189  33.435 229.198  1.00 20.00     0.013 C 
ENDBRANCH  12  13
ENDBRANCH   4  12
TORSDOF 4
ENDMDL
MODEL 3
REMARK VINA RESULT:      -5.3      1.247      2.159
REMARK  4 active torsions:
REMARK  status: ('A' for Active; 'I' for Inactive)
REMARK    1  A    between atoms: C1_1  and  C6_6 
REMARK    2  A    between atoms: C11_11  and  C2_2 
REMARK    3  A    between atoms: C2_2  and  C3_3 
REMARK    4  A    between atoms: C6_6  and  C8_8 
ROOT
HETATM    1  C8  IBP  4409      -0.390  40.863 227.561  1.00 20.00    -0.044 A 
HETATM    2  C9  IBP  4409      -0.428  39.730 228.376  1.00 20.00     0.009 A 
HETATM    3  C10 IBP  4409      -1.546  38.886 228.377  1.00 20.00     0.011 A 
HETATM    4  C11 IBP  4409      -2.635  39.194 227.560  1.00 20.00    -0.040 A 
HETATM    5  C12 IBP  4409      -2.585  40.324 226.764  1.00 20.00     0.011 A 
HETATM    6  C13 IBP  4409      -1.482  41.154 226.763  1.00 20.00     0.009 A 
ENDROOT
BRANCH   1   7
HETATM    7  C6  IBP  4409       0.771  41.786 227.532  1.00 20.00     0.115 C 
HETATM    8  C7  IBP  4409       1.906  41.113 226.772  1.00 20.00     0.026 C 
BRANCH   7   9
HETATM    9  C1  IBP  4409       1.244  42.123 228.924  1.00 20.00     0.181 C 
HETATM   10  O1  IBP  4409       0.496  42.690 229.708  1.00 20.00    -0.647 OA
HETATM   11  O2  IBP  4409       2.377  41.845 229.285  1.00 20.00    -0.647 OA
ENDBRANCH   7   9
ENDBRANCH   1   7
BRANCH   4  12
HETATM   12  C2  IBP  4409      -3.905  38.433 227.425  1.00 20.00    -0.012 C 
BRANCH  12  13
HETATM   13  C3  IBP  4409      -4.212  37.103 226.773  1.00 20.00     0.001 C 
HETATM   14  C4  IBP  4409      -3.817  35.965 227.713  1.00 20.00     0.013 C 
HETATM   15  C5  IBP  4409      -5.668  36.998 226.337  1.00 20.00     0.013 C 
ENDBRANCH  12  13
ENDBRANCH   4  12
TORSDOF 4
ENDMDL
MODEL 4
REMARK VINA RESULT:      -5.2      1.542      2.167
REMARK  4 active torsions:
REMARK  status: ('A' for Active; 'I' for Inactive)
REMARK    1  A    between atoms: C1_1  and  C6_6 
REMARK    2  A    between atoms: C11_11  and  C2_2 
REMARK    3  A    between atoms: C2_2  and  C3_3 
REMARK    4  A    between atoms: C6_6  and  C8_8 
ROOT
HETATM    1  C8  IBP  4409       0.102  41.151 227.305  1.00 20.00    -0.044 A 
HETATM    2  C9  IBP  4409      -0.368  39.987 227.913  1.00 20.00     0.009 A 
HETATM    3  C10 IBP  4409      -1.620  39.458 227.574  1.00 20.00     0.011 A 
HETATM    4  C11 IBP  4409      -2.405  40.113 226.625  1.00 20.00    -0.040 A 
HETATM    5  C12 IBP  4409      -1.928  41.270 226.036  1.00 20.00     0.011 A 
HETATM    6  C13 IBP  4409      -0.693  41.790 226.369  1.00 20.00     0.009 A 
ENDROOT
BRANCH   1   7
HETATM    7  C6  IBP  4409       1.420  41.749 227.636  1.00 20.00     0.115 C 
HETATM    8  C7  IBP  4409       2.507  40.733 227.315  1.00 20.00     0.026 C 
BRANCH   7   9
HETATM    9  C1  IBP  4409       1.506  42.118 229.096  1.00 20.00     0.181 C 
HETATM   10  O1  IBP  4409       2.533  41.907 229.725  1.00 20.00    -0.647 OA
HETATM   11  O2  IBP  4409       0.554  42.621 229.672  1.00 20.00    -0.647 OA
ENDBRANCH   7   9
ENDBRANCH   1   7
BRANCH   4  12
HETATM   12  C2  IBP  4409      -3.752  39.716 226.139  1.00 20.00    -0.012 C 
BRANCH  12  13
HETATM   13  C3  IBP  4409      -4.253  38.436 225.508  1.00 20.00     0.001 C 
HETATM   14  C4  IBP  4409      -5.653  38.118 226.030  1.00 20.00     0.013 C 
HETATM   15  C5  IBP  4409      -4.214  38.490 223.986  1.00 20.00     0.013 C 
ENDBRANCH  12  13
ENDBRANCH   4  12
TORSDOF 4
ENDMDL
MODEL 5
REMARK VINA RESULT:      -5.1     11.460     12.848
REMARK  4 active torsions:
REMARK  status: ('A' for Active; 'I' for Inactive)
REMARK    1  A    between atoms: C1_1  and  C6_6 
REMARK    2  A    between atoms: C11_11  and  C2_2 
REMARK    3  A    between atoms: C2_2  and  C3_3 
REMARK    4  A    between atoms: C6_6  and  C8_8 
ROOT
HETATM    1  C8  IBP  4409       2.384  36.825 237.287  1.00 20.00    -0.044 A 
HETATM    2  C9  IBP  4409       2.086  35.500 237.605  1.00 20.00     0.009 A 
HETATM    3  C10 IBP  4409       2.919  34.765 238.460  1.00 20.00     0.011 A 
HETATM    4  C11 IBP  4409       4.062  35.368 238.986  1.00 20.00    -0.040 A 
HETATM    5  C12 IBP  4409       4.347  36.680 238.655  1.00 20.00     0.011 A 
HETATM    6  C13 IBP  4409       3.525  37.404 237.814  1.00 20.00     0.009 A 
ENDROOT
BRANCH   1   7
HETATM    7  C6  IBP  4409       1.533  37.639 236.383  1.00 20.00     0.115 C 
HETATM    8  C7  IBP  4409       0.227  37.952 237.100  1.00 20.00     0.026 C 
BRANCH   7   9
HETATM    9  C1  IBP  4409       1.228  36.903 235.103  1.00 20.00     0.181 C 
HETATM   10  O1  IBP  4409       2.071  36.824 234.221  1.00 20.00    -0.647 OA
HETATM   11  O2  IBP  4409       0.136  36.385 234.923  1.00 20.00    -0.647 OA
ENDBRANCH   7   9
ENDBRANCH   1   7
BRANCH   4  12
HETATM   12  C2  IBP  4409       5.064  34.759 239.898  1.00 20.00    -0.012 C 
BRANCH  12  13
HETATM   13  C3  IBP  4409       5.255  33.335 240.372  1.00 20.00     0.001 C 
HETATM   14  C4  IBP  4409       5.397  32.406 239.166  1.00 20.00     0.013 C 
HETATM   15  C5  IBP  4409       6.429  33.199 241.333  1.00 20.00     0.013 C 
ENDBRANCH  12  13
ENDBRANCH   4  12
TORSDOF 4
ENDMDL
MODEL 6
REMARK VINA RESULT:      -5.0      8.183      9.437
REMARK  4 active torsions:
REMARK  status: ('A' for Active; 'I' for Inactive)
REMARK    1  A    between atoms: C1_1  and  C6_6 
REMARK    2  A    between atoms: C11_11  and  C2_2 
REMARK    3  A    between atoms: C2_2  and  C3_3 
REMARK    4  A    between atoms: C6_6  and  C8_8 
ROOT
HETATM    1  C8  IBP  4409       1.908  35.687 235.794  1.00 20.00    -0.044 A 
HETATM    2  C9  IBP  4409       1.728  34.312 235.641  1.00 20.00     0.009 A 
HETATM    3  C10 IBP  4409       1.426  33.765 234.386  1.00 20.00     0.011 A 
HETATM    4  C11 IBP  4409       1.294  34.612 233.285  1.00 20.00    -0.040 A 
HETATM    5  C12 IBP  4409       1.468  35.973 233.455  1.00 20.00     0.011 A 
HETATM    6  C13 IBP  4409       1.767  36.511 234.691  1.00 20.00     0.009 A 
ENDROOT
BRANCH   1   7
HETATM    7  C6  IBP  4409       2.224  36.309 237.104  1.00 20.00     0.115 C 
HETATM    8  C7  IBP  4409       1.304  37.504 237.308  1.00 20.00     0.026 C 
BRANCH   7   9
HETATM    9  C1  IBP  4409       3.657  36.776 237.160  1.00 20.00     0.181 C 
HETATM   10  O1  IBP  4409       4.559  36.045 236.778  1.00 20.00    -0.647 OA
HETATM   11  O2  IBP  4409       3.939  37.883 237.593  1.00 20.00    -0.647 OA
ENDBRANCH   7   9
ENDBRANCH   1   7
BRANCH   4  12
HETATM   12  C2  IBP  4409       0.975  34.228 231.886  1.00 20.00    -0.012 C 
BRANCH  12  13
HETATM   13  C3  IBP  4409       0.783  35.060 230.637  1.00 20.00     0.001 C 
HETATM   14  C4  IBP  4409       1.351  34.315 229.430  1.00 20.00     0.013 C 
HETATM   15  C5  IBP  4409      -0.674  35.454 230.425  1.00 20.00     0.013 C 
ENDBRANCH  12  13
ENDBRANCH   4  12
TORSDOF 4
ENDMDL
MODEL 7
REMARK VINA RESULT:      -4.9      1.310      1.944
REMARK  4 active torsions:
REMARK  status: ('A' for Active; 'I' for Inactive)
REMARK    1  A    between atoms: C1_1  and  C6_6 
REMARK    2  A    between atoms: C11_11  and  C2_2 
REMARK    3  A    between atoms: C2_2  and  C3_3 
REMARK    4  A    between atoms: C6_6  and  C8_8 
ROOT
HETATM    1  C8  IBP  4409       1.237  40.509 227.635  1.00 20.00    -0.044 A 
HETATM    2  C9  IBP  4409       1.453  39.169 227.311  1.00 20.00     0.009 A 
HETATM    3  C10 IBP  4409       0.515  38.188 227.661  1.00 20.00     0.011 A 
HETATM    4  C11 IBP  4409      -0.639  38.561 228.351  1.00 20.00    -0.040 A 
HETATM    5  C12 IBP  4409      -0.835  39.893 228.671  1.00 20.00     0.011 A 
HETATM    6  C13 IBP  4409       0.089  40.858 228.324  1.00 20.00     0.009 A 
ENDROOT
BRANCH   1   7
HETATM    7  C6  IBP  4409       2.205  41.579 227.288  1.00 20.00     0.115 C 
HETATM    8  C7  IBP  4409       3.246  41.670 228.396  1.00 20.00     0.026 C 
BRANCH   7   9
HETATM    9  C1  IBP  4409       1.521  42.916 227.146  1.00 20.00     0.181 C 
HETATM   10  O1  IBP  4409       1.700  43.792 227.980  1.00 20.00    -0.647 OA
HETATM   11  O2  IBP  4409       0.773  43.140 226.207  1.00 20.00    -0.647 OA
ENDBRANCH   7   9
ENDBRANCH   1   7
BRANCH   4  12
HETATM   12  C2  IBP  4409      -1.741  37.676 228.811  1.00 20.00    -0.012 C 
BRANCH  12  13
HETATM   13  C3  IBP  4409      -2.866  37.002 228.058  1.00 20.00     0.001 C 
HETATM   14  C4  IBP  4409      -3.327  35.763 228.823  1.00 20.00     0.013 C 
HETATM   15  C5  IBP  4409      -4.020  37.955 227.774  1.00 20.00     0.013 C 
ENDBRANCH  12  13
ENDBRANCH   4  12
TORSDOF 4
ENDMDL
MODEL 8
REMARK VINA RESULT:      -4.9     11.752     12.827
REMARK  4 active torsions:
REMARK  status: ('A' for Active; 'I' for Inactive)
REMARK    1  A    between atoms: C1_1  and  C6_6 
REMARK    2  A    between atoms: C11_11  and  C2_2 
REMARK    3  A    between atoms: C2_2  and  C3_3 
REMARK    4  A    between atoms: C6_6  and  C8_8 
ROOT
HETATM    1  C8  IBP  4409       3.641  35.616 237.125  1.00 20.00    -0.044 A 
HETATM    2  C9  IBP  4409       3.545  34.868 235.951  1.00 20.00     0.009 A 
HETATM    3  C10 IBP  4409       3.659  33.472 235.981  1.00 20.00     0.011 A 
HETATM    4  C11 IBP  4409       3.882  32.830 237.199  1.00 20.00    -0.040 A 
HETATM    5  C12 IBP  4409       3.982  33.586 238.353  1.00 20.00     0.011 A 
HETATM    6  C13 IBP  4409       3.868  34.962 238.323  1.00 20.00     0.009 A 
ENDROOT
BRANCH   1   7
HETATM    7  C6  IBP  4409       3.531  37.096 237.140  1.00 20.00     0.115 C 
HETATM    8  C7  IBP  4409       3.889  37.595 238.533  1.00 20.00     0.026 C 
BRANCH   7   9
HETATM    9  C1  IBP  4409       2.132  37.548 236.800  1.00 20.00     0.181 C 
HETATM   10  O1  IBP  4409       1.854  37.886 235.659  1.00 20.00    -0.647 OA
HETATM   11  O2  IBP  4409       1.263  37.591 237.657  1.00 20.00    -0.647 OA
ENDBRANCH   7   9
ENDBRANCH   1   7
BRANCH   4  12
HETATM   12  C2  IBP  4409       4.035  31.371 237.435  1.00 20.00    -0.012 C 
BRANCH  12  13
HETATM   13  C3  IBP  4409       5.252  30.473 237.409  1.00 20.00     0.001 C 
HETATM   14  C4  IBP  4409       5.440  29.821 238.778  1.00 20.00     0.013 C 
HETATM   15  C5  IBP  4409       5.181  29.438 236.294  1.00 20.00     0.013 C 
ENDBRANCH  12  13
ENDBRANCH   4  12
TORSDOF 4
ENDMDL
MODEL 9
REMARK VINA RESULT:      -4.9     10.337     11.974
REMARK  4 active torsions:
REMARK  status: ('A' for Active; 'I' for Inactive)
REMARK    1  A    between atoms: C1_1  and  C6_6 
REMARK    2  A    between atoms: C11_11  and  C2_2 
REMARK    3  A    between atoms: C2_2  and  C3_3 
REMARK    4  A    between atoms: C6_6  and  C8_8 
ROOT
HETATM    1  C8  IBP  4409      -0.135  36.497 236.575  1.00 20.00    -0.044 A 
HETATM    2  C9  IBP  4409       0.639  37.602 236.929  1.00 20.00     0.009 A 
HETATM    3  C10 IBP  4409       1.925  37.435 237.460  1.00 20.00     0.011 A 
HETATM    4  C11 IBP  4409       2.427  36.146 237.643  1.00 20.00    -0.040 A 
HETATM    5  C12 IBP  4409       1.645  35.061 237.293  1.00 20.00     0.011 A 
HETATM    6  C13 IBP  4409       0.378  35.226 236.769  1.00 20.00     0.009 A 
ENDROOT
BRANCH   1   7
HETATM    7  C6  IBP  4409      -1.503  36.627 236.014  1.00 20.00     0.115 C 
HETATM    8  C7  IBP  4409      -2.452  35.780 236.850  1.00 20.00     0.026 C 
BRANCH   7   9
HETATM    9  C1  IBP  4409      -1.558  36.158 234.581  1.00 20.00     0.181 C 
HETATM   10  O1  IBP  4409      -0.713  36.527 233.779  1.00 20.00    -0.647 OA
HETATM   11  O2  IBP  4409      -2.448  35.414 234.200  1.00 20.00    -0.647 OA
ENDBRANCH   7   9
ENDBRANCH   1   7
BRANCH   4  12
HETATM   12  C2  IBP  4409       3.754  35.764 238.191  1.00 20.00    -0.012 C 
BRANCH  12  13
HETATM   13  C3  IBP  4409       4.150  35.112 239.497  1.00 20.00     0.001 C 
HETATM   14  C4  IBP  4409       4.438  33.630 239.265  1.00 20.00     0.013 C 
HETATM   15  C5  IBP  4409       5.323  35.820 240.163  1.00 20.00     0.013 C 
ENDBRANCH  12  13
ENDBRANCH   4  12
TORSDOF 4
ENDMDL
