MODEL 1
REMARK VINA RESULT:      -8.0      0.000      0.000
REMARK  7 active torsions:
REMARK  status: ('A' for Active; 'I' for Inactive)
REMARK    1  A    between atoms: C3_3  and  O3_4 
REMARK    2  A    between atoms: C1X_31  and  O3_4 
REMARK    3  A    between atoms: C12_13  and  O12_14 
REMARK    4  A    between atoms: C14_17  and  O14_18 
REMARK    5  A    between atoms: C17_22  and  C20_25 
REMARK    6  A    between atoms: C3X_33  and  O3X_34 
REMARK    7  A    between atoms: C4X_36  and  O4X_37 
ROOT
HETATM    1  C1  DGX  2997      -3.072  33.234 234.342  1.00 20.00     0.012 C 
HETATM    2  C2  DGX  2997      -4.140  34.323 234.237  1.00 20.00     0.033 C 
HETATM    3  C3  DGX  2997      -4.281  34.870 232.816  1.00 20.00     0.125 C 
HETATM    4  C4  DGX  2997      -2.927  35.403 232.366  1.00 20.00     0.037 C 
HETATM    5  C5  DGX  2997      -1.796  34.381 232.456  1.00 20.00    -0.004 C 
HETATM    6  C6  DGX  2997      -0.469  34.979 231.992  1.00 20.00     0.006 C 
HETATM    7  C7  DGX  2997       0.086  35.964 233.018  1.00 20.00     0.008 C 
HETATM    8  C8  DGX  2997       0.362  35.258 234.343  1.00 20.00     0.026 C 
HETATM    9  C9  DGX  2997      -0.877  34.530 234.869  1.00 20.00     0.003 C 
HETATM   10  C10 DGX  2997      -1.686  33.655 233.830  1.00 20.00    -0.036 C 
HETATM   11  C11 DGX  2997      -0.388  33.663 236.025  1.00 20.00     0.038 C 
HETATM   12  C12 DGX  2997       0.359  34.424 237.111  1.00 20.00     0.130 C 
HETATM   13  C13 DGX  2997       1.584  35.285 236.626  1.00 20.00     0.021 C 
HETATM   14  C14 DGX  2997       1.137  36.151 235.396  1.00 20.00     0.072 C 
HETATM   15  C15 DGX  2997       0.389  37.300 236.109  1.00 20.00     0.040 C 
HETATM   16  C16 DGX  2997       1.195  37.636 237.363  1.00 20.00     0.013 C 
HETATM   17  C17 DGX  2997       1.858  36.328 237.784  1.00 20.00     0.030 C 
HETATM   18  C18 DGX  2997       2.788  34.393 236.262  1.00 20.00     0.022 C 
HETATM   19  C19 DGX  2997      -1.040  32.278 233.584  1.00 20.00     0.016 C 
ENDROOT
BRANCH   3  20
HETATM   20  O3  DGX  2997      -4.689  33.863 231.879  1.00 20.00    -0.356 OA
BRANCH  20  21
HETATM   21  C1X DGX  2997      -6.030  33.341 231.928  1.00 20.00     0.263 C 
HETATM   22  O5X DGX  2997      -6.823  34.065 232.870  1.00 20.00    -0.354 OA
HETATM   23  C5X DGX  2997      -8.177  33.614 233.038  1.00 20.00     0.152 C 
HETATM   24  C4X DGX  2997      -8.189  32.137 233.466  1.00 20.00     0.175 C 
HETATM   25  C6X DGX  2997      -8.819  34.501 234.095  1.00 20.00     0.042 C 
HETATM   26  C3X DGX  2997      -7.376  31.267 232.502  1.00 20.00     0.154 C 
HETATM   27  C2X DGX  2997      -5.978  31.866 232.338  1.00 20.00     0.095 C 
BRANCH  24  28
HETATM   28  O4X DGX  2997      -9.535  31.641 233.510  1.00 20.00    -0.390 OA
ATOM     29  H4X DGX  2997      -9.541  30.748 233.187  1.00  0.00     0.210 HD
ENDBRANCH  24  28
BRANCH  26  30
HETATM   30  O3X DGX  2997      -8.065  31.114 231.245  1.00 20.00    -0.393 OA
ATOM     31  H3X DGX  2997      -7.593  30.559 230.635  1.00  0.00     0.210 HD
ENDBRANCH  26  30
ENDBRANCH  20  21
ENDBRANCH   3  20
BRANCH  12  32
HETATM   32  O12 DGX  2997       0.774  33.468 238.097  1.00 20.00    -0.395 OA
ATOM     33  H12 DGX  2997       1.016  33.951 238.878  1.00  0.00     0.210 HD
ENDBRANCH  12  32
BRANCH  14  34
HETATM   34  O14 DGX  2997       2.308  36.809 234.788  1.00 20.00    -0.389 OA
ATOM     35  H14 DGX  2997       2.981  36.165 234.598  1.00  0.00     0.210 HD
ENDBRANCH  14  34
BRANCH  17  36
HETATM   36  C20 DGX  2997       3.280  36.538 238.218  1.00 20.00    -0.045 A 
HETATM   37  C21 DGX  2997       4.228  37.421 237.496  1.00 20.00     0.213 A 
HETATM   38  O21 DGX  2997       5.492  37.218 238.174  1.00 20.00    -0.314 OA
HETATM   39  C23 DGX  2997       5.313  36.415 239.227  1.00 20.00     0.283 A 
HETATM   40  C22 DGX  2997       3.940  35.961 239.236  1.00 20.00     0.087 A 
HETATM   41  O23 DGX  2997       6.266  36.127 239.958  1.00 20.00    -0.260 OA
ENDBRANCH  17  36
TORSDOF 7
ENDMDL
MODEL 2
REMARK VINA RESULT:      -7.8      2.879      3.873
REMARK  7 active torsions:
REMARK  status: ('A' for Active; 'I' for Inactive)
REMARK    1  A    between atoms: C3_3  and  O3_4 
REMARK    2  A    between atoms: C1X_31  and  O3_4 
REMARK    3  A    between atoms: C12_13  and  O12_14 
REMARK    4  A    between atoms: C14_17  and  O14_18 
REMARK    5  A    between atoms: C17_22  and  C20_25 
REMARK    6  A    between atoms: C3X_33  and  O3X_34 
REMARK    7  A    between atoms: C4X_36  and  O4X_37 
ROOT
HETATM    1  C1  DGX  2997      -2.478  34.049 233.435  1.00 20.00     0.012 C 
HETATM    2  C2  DGX  2997      -3.143  35.359 233.009  1.00 20.00     0.033 C 
HETATM    3  C3  DGX  2997      -2.804  35.745 231.569  1.00 20.00     0.125 C 
HETATM    4  C4  DGX  2997      -1.290  35.847 231.438  1.00 20.00     0.037 C 
HETATM    5  C5  DGX  2997      -0.543  34.584 231.862  1.00 20.00    -0.004 C 
HETATM    6  C6  DGX  2997       0.966  34.752 231.707  1.00 20.00     0.006 C 
HETATM    7  C7  DGX  2997       1.535  35.676 232.782  1.00 20.00     0.008 C 
HETATM    8  C8  DGX  2997       1.299  35.090 234.171  1.00 20.00     0.026 C 
HETATM    9  C9  DGX  2997      -0.179  34.781 234.415  1.00 20.00     0.003 C 
HETATM   10  C10 DGX  2997      -0.951  34.027 233.259  1.00 20.00    -0.036 C 
HETATM   11  C11 DGX  2997      -0.225  33.965 235.702  1.00 20.00     0.038 C 
HETATM   12  C12 DGX  2997       0.446  34.631 236.895  1.00 20.00     0.130 C 
HETATM   13  C13 DGX  2997       1.941  35.075 236.680  1.00 20.00     0.021 C 
HETATM   14  C14 DGX  2997       2.041  35.871 235.332  1.00 20.00     0.072 C 
HETATM   15  C15 DGX  2997       1.511  37.253 235.772  1.00 20.00     0.040 C 
HETATM   16  C16 DGX  2997       2.080  37.518 237.165  1.00 20.00     0.013 C 
HETATM   17  C17 DGX  2997       2.235  36.144 237.810  1.00 20.00     0.030 C 
HETATM   18  C18 DGX  2997       2.892  33.862 236.675  1.00 20.00     0.022 C 
HETATM   19  C19 DGX  2997      -0.684  32.510 233.257  1.00 20.00     0.016 C 
ENDROOT
BRANCH   3  20
HETATM   20  O3  DGX  2997      -3.262  34.774 230.618  1.00 20.00    -0.356 OA
BRANCH  20  21
HETATM   21  C1X DGX  2997      -3.185  35.060 229.209  1.00 20.00     0.263 C 
HETATM   22  O5X DGX  2997      -3.564  36.412 228.944  1.00 20.00    -0.354 OA
HETATM   23  C5X DGX  2997      -3.563  36.811 227.563  1.00 20.00     0.152 C 
HETATM   24  C4X DGX  2997      -4.502  35.902 226.753  1.00 20.00     0.175 C 
HETATM   25  C6X DGX  2997      -4.019  38.262 227.514  1.00 20.00     0.042 C 
HETATM   26  C3X DGX  2997      -4.163  34.422 226.955  1.00 20.00     0.154 C 
HETATM   27  C2X DGX  2997      -4.123  34.114 228.453  1.00 20.00     0.095 C 
BRANCH  24  28
HETATM   28  O4X DGX  2997      -4.409  36.209 225.353  1.00 20.00    -0.390 OA
ATOM     29  H4X DGX  2997      -4.656  35.438 224.856  1.00  0.00     0.210 HD
ENDBRANCH  24  28
BRANCH  26  30
HETATM   30  O3X DGX  2997      -2.932  34.082 226.286  1.00 20.00    -0.393 OA
ATOM     31  H3X DGX  2997      -2.898  33.169 226.026  1.00  0.00     0.210 HD
ENDBRANCH  26  30
ENDBRANCH  20  21
ENDBRANCH   3  20
BRANCH  12  32
HETATM   32  O12 DGX  2997       0.344  33.727 238.005  1.00 20.00    -0.395 OA
ATOM     33  H12 DGX  2997       0.372  34.248 238.799  1.00  0.00     0.210 HD
ENDBRANCH  12  32
BRANCH  14  34
HETATM   34  O14 DGX  2997       3.456  36.120 234.996  1.00 20.00    -0.389 OA
ATOM     35  H14 DGX  2997       3.705  35.610 234.233  1.00  0.00     0.210 HD
ENDBRANCH  14  34
BRANCH  17  36
HETATM   36  C20 DGX  2997       3.525  36.026 238.569  1.00 20.00    -0.045 A 
HETATM   37  C21 DGX  2997       4.649  36.982 238.415  1.00 20.00     0.213 A 
HETATM   38  O21 DGX  2997       5.712  36.415 239.219  1.00 20.00    -0.314 OA
HETATM   39  C23 DGX  2997       5.263  35.331 239.859  1.00 20.00     0.283 A 
HETATM   40  C22 DGX  2997       3.908  35.067 239.427  1.00 20.00     0.087 A 
HETATM   41  O23 DGX  2997       6.008  34.704 240.618  1.00 20.00    -0.260 OA
ENDBRANCH  17  36
TORSDOF 7
ENDMDL
MODEL 3
REMARK VINA RESULT:      -7.7      3.283     10.335
REMARK  7 active torsions:
REMARK  status: ('A' for Active; 'I' for Inactive)
REMARK    1  A    between atoms: C3_3  and  O3_4 
REMARK    2  A    between atoms: C1X_31  and  O3_4 
REMARK    3  A    between atoms: C12_13  and  O12_14 
REMARK    4  A    between atoms: C14_17  and  O14_18 
REMARK    5  A    between atoms: C17_22  and  C20_25 
REMARK    6  A    between atoms: C3X_33  and  O3X_34 
REMARK    7  A    between atoms: C4X_36  and  O4X_37 
ROOT
HETATM    1  C1  DGX  2997       1.883  35.298 234.355  1.00 20.00     0.012 C 
HETATM    2  C2  DGX  2997       1.669  36.732 234.841  1.00 20.00     0.033 C 
HETATM    3  C3  DGX  2997       0.650  36.819 235.977  1.00 20.00     0.125 C 
HETATM    4  C4  DGX  2997      -0.663  36.215 235.498  1.00 20.00     0.037 C 
HETATM    5  C5  DGX  2997      -0.536  34.785 234.977  1.00 20.00    -0.004 C 
HETATM    6  C6  DGX  2997      -1.885  34.241 234.512  1.00 20.00     0.006 C 
HETATM    7  C7  DGX  2997      -2.319  34.882 233.196  1.00 20.00     0.008 C 
HETATM    8  C8  DGX  2997      -1.315  34.568 232.090  1.00 20.00     0.026 C 
HETATM    9  C9  DGX  2997       0.107  34.980 232.479  1.00 20.00     0.003 C 
HETATM   10  C10 DGX  2997       0.596  34.576 233.927  1.00 20.00    -0.036 C 
HETATM   11  C11 DGX  2997       1.019  34.367 231.421  1.00 20.00     0.038 C 
HETATM   12  C12 DGX  2997       0.664  34.742 229.989  1.00 20.00     0.130 C 
HETATM   13  C13 DGX  2997      -0.819  34.445 229.551  1.00 20.00     0.021 C 
HETATM   14  C14 DGX  2997      -1.790  35.010 230.646  1.00 20.00     0.072 C 
HETATM   15  C15 DGX  2997      -1.797  36.511 230.279  1.00 20.00     0.040 C 
HETATM   16  C16 DGX  2997      -1.814  36.590 228.753  1.00 20.00     0.013 C 
HETATM   17  C17 DGX  2997      -1.074  35.344 228.274  1.00 20.00     0.030 C 
HETATM   18  C18 DGX  2997      -1.050  32.937 229.336  1.00 20.00     0.022 C 
HETATM   19  C19 DGX  2997       1.050  33.106 234.012  1.00 20.00     0.016 C 
ENDROOT
BRANCH   3  20
HETATM   20  O3  DGX  2997       1.066  36.094 237.144  1.00 20.00    -0.356 OA
BRANCH  20  21
HETATM   21  C1X DGX  2997       2.458  36.060 237.507  1.00 20.00     0.263 C 
HETATM   22  O5X DGX  2997       2.740  34.928 238.333  1.00 20.00    -0.354 OA
HETATM   23  C5X DGX  2997       4.095  34.802 238.793  1.00 20.00     0.152 C 
HETATM   24  C4X DGX  2997       4.503  36.059 239.579  1.00 20.00     0.175 C 
HETATM   25  C6X DGX  2997       4.160  33.557 239.666  1.00 20.00     0.042 C 
HETATM   26  C3X DGX  2997       4.256  37.334 238.767  1.00 20.00     0.154 C 
HETATM   27  C2X DGX  2997       2.810  37.341 238.267  1.00 20.00     0.095 C 
BRANCH  24  28
HETATM   28  O4X DGX  2997       5.893  35.999 239.931  1.00 20.00    -0.390 OA
ATOM     29  H4X DGX  2997       6.204  36.882 240.092  1.00  0.00     0.210 HD
ENDBRANCH  24  28
BRANCH  26  30
HETATM   30  O3X DGX  2997       5.213  37.453 237.696  1.00 20.00    -0.393 OA
ATOM     31  H3X DGX  2997       5.695  38.270 237.725  1.00  0.00     0.210 HD
ENDBRANCH  26  30
ENDBRANCH  20  21
ENDBRANCH   3  20
BRANCH  12  32
HETATM   32  O12 DGX  2997       1.589  34.065 229.126  1.00 20.00    -0.395 OA
ATOM     33  H12 DGX  2997       1.182  33.997 228.271  1.00  0.00     0.210 HD
ENDBRANCH  12  32
BRANCH  14  34
HETATM   34  O14 DGX  2997      -3.171  34.568 230.374  1.00 20.00    -0.389 OA
ATOM     35  H14 DGX  2997      -3.596  34.310 231.184  1.00  0.00     0.210 HD
ENDBRANCH  14  34
BRANCH  17  36
HETATM   36  C20 DGX  2997      -1.755  34.711 227.095  1.00 20.00    -0.045 A 
HETATM   37  C21 DGX  2997      -1.031  33.936 226.058  1.00 20.00     0.213 A 
HETATM   38  O21 DGX  2997      -2.042  33.636 225.065  1.00 20.00    -0.314 OA
HETATM   39  C23 DGX  2997      -3.232  34.068 225.491  1.00 20.00     0.283 A 
HETATM   40  C22 DGX  2997      -3.050  34.771 226.741  1.00 20.00     0.087 A 
HETATM   41  O23 DGX  2997      -4.241  33.895 224.799  1.00 20.00    -0.260 OA
ENDBRANCH  17  36
TORSDOF 7
ENDMDL
MODEL 4
REMARK VINA RESULT:      -7.5      3.383      4.880
REMARK  7 active torsions:
REMARK  status: ('A' for Active; 'I' for Inactive)
REMARK    1  A    between atoms: C3_3  and  O3_4 
REMARK    2  A    between atoms: C1X_31  and  O3_4 
REMARK    3  A    between atoms: C12_13  and  O12_14 
REMARK    4  A    between atoms: C14_17  and  O14_18 
REMARK    5  A    between atoms: C17_22  and  C20_25 
REMARK    6  A    between atoms: C3X_33  and  O3X_34 
REMARK    7  A    between atoms: C4X_36  and  O4X_37 
ROOT
HETATM    1  C1  DGX  2997      -1.176  31.814 232.541  1.00 20.00     0.012 C 
HETATM    2  C2  DGX  2997      -2.479  32.583 232.323  1.00 20.00     0.033 C 
HETATM    3  C3  DGX  2997      -2.516  33.302 230.974  1.00 20.00     0.125 C 
HETATM    4  C4  DGX  2997      -1.320  34.242 230.893  1.00 20.00     0.037 C 
HETATM    5  C5  DGX  2997       0.026  33.556 231.118  1.00 20.00    -0.004 C 
HETATM    6  C6  DGX  2997       1.179  34.551 231.024  1.00 20.00     0.006 C 
HETATM    7  C7  DGX  2997       1.227  35.463 232.249  1.00 20.00     0.008 C 
HETATM    8  C8  DGX  2997       1.455  34.645 233.517  1.00 20.00     0.026 C 
HETATM    9  C9  DGX  2997       0.411  33.538 233.676  1.00 20.00     0.003 C 
HETATM   10  C10 DGX  2997       0.095  32.666 232.395  1.00 20.00    -0.036 C 
HETATM   11  C11 DGX  2997       0.916  32.652 234.809  1.00 20.00     0.038 C 
HETATM   12  C12 DGX  2997       1.198  33.391 236.109  1.00 20.00     0.130 C 
HETATM   13  C13 DGX  2997       2.184  34.614 236.002  1.00 20.00     0.021 C 
HETATM   14  C14 DGX  2997       1.731  35.523 234.806  1.00 20.00     0.072 C 
HETATM   15  C15 DGX  2997       0.564  36.297 235.457  1.00 20.00     0.040 C 
HETATM   16  C16 DGX  2997       0.996  36.621 236.887  1.00 20.00     0.013 C 
HETATM   17  C17 DGX  2997       1.927  35.484 237.298  1.00 20.00     0.030 C 
HETATM   18  C18 DGX  2997       3.641  34.146 235.816  1.00 20.00     0.022 C 
HETATM   19  C19 DGX  2997       1.149  31.570 232.148  1.00 20.00     0.016 C 
ENDROOT
BRANCH   3  20
HETATM   20  O3  DGX  2997      -2.436  32.394 229.866  1.00 20.00    -0.356 OA
BRANCH  20  21
HETATM   21  C1X DGX  2997      -1.585  32.703 228.747  1.00 20.00     0.263 C 
HETATM   22  O5X DGX  2997      -2.352  33.183 227.642  1.00 20.00    -0.354 OA
HETATM   23  C5X DGX  2997      -1.617  33.493 226.447  1.00 20.00     0.152 C 
HETATM   24  C4X DGX  2997      -0.845  32.253 225.968  1.00 20.00     0.175 C 
HETATM   25  C6X DGX  2997      -2.625  33.954 225.405  1.00 20.00     0.042 C 
HETATM   26  C3X DGX  2997       0.029  31.670 227.083  1.00 20.00     0.154 C 
HETATM   27  C2X DGX  2997      -0.828  31.439 228.328  1.00 20.00     0.095 C 
BRANCH  24  28
HETATM   28  O4X DGX  2997      -0.006  32.586 224.851  1.00 20.00    -0.390 OA
ATOM     29  H4X DGX  2997       0.901  32.528 225.125  1.00  0.00     0.210 HD
ENDBRANCH  24  28
BRANCH  26  30
HETATM   30  O3X DGX  2997       1.164  32.521 227.341  1.00 20.00    -0.393 OA
ATOM     31  H3X DGX  2997       1.110  33.352 226.884  1.00  0.00     0.210 HD
ENDBRANCH  26  30
ENDBRANCH  20  21
ENDBRANCH   3  20
BRANCH  12  32
HETATM   32  O12 DGX  2997       1.691  32.428 237.053  1.00 20.00    -0.395 OA
ATOM     33  H12 DGX  2997       2.595  32.245 236.826  1.00  0.00     0.210 HD
ENDBRANCH  12  32
BRANCH  14  34
HETATM   34  O14 DGX  2997       2.748  36.559 234.545  1.00 20.00    -0.389 OA
ATOM     35  H14 DGX  2997       2.363  37.424 234.637  1.00  0.00     0.210 HD
ENDBRANCH  14  34
BRANCH  17  36
HETATM   36  C20 DGX  2997       3.122  35.988 238.054  1.00 20.00    -0.045 A 
HETATM   37  C21 DGX  2997       3.718  37.329 237.835  1.00 20.00     0.213 A 
HETATM   38  O21 DGX  2997       4.905  37.332 238.664  1.00 20.00    -0.314 OA
HETATM   39  C23 DGX  2997       4.963  36.200 239.372  1.00 20.00     0.283 A 
HETATM   40  C22 DGX  2997       3.870  35.345 238.967  1.00 20.00     0.087 A 
HETATM   41  O23 DGX  2997       5.892  36.008 240.163  1.00 20.00    -0.260 OA
ENDBRANCH  17  36
TORSDOF 7
ENDMDL
MODEL 5
REMARK VINA RESULT:      -7.4      2.779      3.473
REMARK  7 active torsions:
REMARK  status: ('A' for Active; 'I' for Inactive)
REMARK    1  A    between atoms: C3_3  and  O3_4 
REMARK    2  A    between atoms: C1X_31  and  O3_4 
REMARK    3  A    between atoms: C12_13  and  O12_14 
REMARK    4  A    between atoms: C14_17  and  O14_18 
REMARK    5  A    between atoms: C17_22  and  C20_25 
REMARK    6  A    between atoms: C3X_33  and  O3X_34 
REMARK    7  A    between atoms: C4X_36  and  O4X_37 
ROOT
HETATM    1  C1  DGX  2997      -1.502  32.063 232.511  1.00 20.00     0.012 C 
HETATM    2  C2  DGX  2997      -2.742  32.924 232.268  1.00 20.00     0.033 C 
HETATM    3  C3  DGX  2997      -2.728  33.596 230.895  1.00 20.00     0.125 C 
HETATM    4  C4  DGX  2997      -1.462  34.436 230.779  1.00 20.00     0.037 C 
HETATM    5  C5  DGX  2997      -0.173  33.654 231.025  1.00 20.00    -0.004 C 
HETATM    6  C6  DGX  2997       1.054  34.553 230.895  1.00 20.00     0.006 C 
HETATM    7  C7  DGX  2997       1.178  35.500 232.086  1.00 20.00     0.008 C 
HETATM    8  C8  DGX  2997       1.347  34.712 233.382  1.00 20.00     0.026 C 
HETATM    9  C9  DGX  2997       0.220  33.696 233.582  1.00 20.00     0.003 C 
HETATM   10  C10 DGX  2997      -0.169  32.807 232.333  1.00 20.00    -0.036 C 
HETATM   11  C11 DGX  2997       0.659  32.814 234.745  1.00 20.00     0.038 C 
HETATM   12  C12 DGX  2997       1.004  33.573 236.018  1.00 20.00     0.130 C 
HETATM   13  C13 DGX  2997       2.083  34.711 235.865  1.00 20.00     0.021 C 
HETATM   14  C14 DGX  2997       1.697  35.610 234.639  1.00 20.00     0.072 C 
HETATM   15  C15 DGX  2997       0.597  36.496 235.265  1.00 20.00     0.040 C 
HETATM   16  C16 DGX  2997       1.059  36.835 236.681  1.00 20.00     0.013 C 
HETATM   17  C17 DGX  2997       1.900  35.644 237.131  1.00 20.00     0.030 C 
HETATM   18  C18 DGX  2997       3.497  34.124 235.694  1.00 20.00     0.022 C 
HETATM   19  C19 DGX  2997       0.795  31.624 232.124  1.00 20.00     0.016 C 
ENDROOT
BRANCH   3  20
HETATM   20  O3  DGX  2997      -2.724  32.646 229.820  1.00 20.00    -0.356 OA
BRANCH  20  21
HETATM   21  C1X DGX  2997      -3.675  32.775 228.747  1.00 20.00     0.263 C 
HETATM   22  O5X DGX  2997      -3.380  33.917 227.941  1.00 20.00    -0.354 OA
HETATM   23  C5X DGX  2997      -4.284  34.176 226.854  1.00 20.00     0.152 C 
HETATM   24  C4X DGX  2997      -5.714  34.348 227.389  1.00 20.00     0.175 C 
HETATM   25  C6X DGX  2997      -3.798  35.438 226.155  1.00 20.00     0.042 C 
HETATM   26  C3X DGX  2997      -6.136  33.158 228.256  1.00 20.00     0.154 C 
HETATM   27  C2X DGX  2997      -5.080  32.922 229.338  1.00 20.00     0.095 C 
BRANCH  24  28
HETATM   28  O4X DGX  2997      -6.643  34.477 226.302  1.00 20.00    -0.390 OA
ATOM     29  H4X DGX  2997      -6.358  33.917 225.590  1.00  0.00     0.210 HD
ENDBRANCH  24  28
BRANCH  26  30
HETATM   30  O3X DGX  2997      -6.368  31.989 227.445  1.00 20.00    -0.393 OA
ATOM     31  H3X DGX  2997      -5.671  31.834 226.819  1.00  0.00     0.210 HD
ENDBRANCH  26  30
ENDBRANCH  20  21
ENDBRANCH   3  20
BRANCH  12  32
HETATM   32  O12 DGX  2997       1.424  32.609 236.994  1.00 20.00    -0.395 OA
ATOM     33  H12 DGX  2997       0.868  32.716 237.756  1.00  0.00     0.210 HD
ENDBRANCH  12  32
BRANCH  14  34
HETATM   34  O14 DGX  2997       2.790  36.554 234.340  1.00 20.00    -0.389 OA
ATOM     35  H14 DGX  2997       3.577  36.076 234.103  1.00  0.00     0.210 HD
ENDBRANCH  14  34
BRANCH  17  36
HETATM   36  C20 DGX  2997       3.134  36.078 237.867  1.00 20.00    -0.045 A 
HETATM   37  C21 DGX  2997       3.904  37.296 237.515  1.00 20.00     0.213 A 
HETATM   38  O21 DGX  2997       5.064  37.248 238.381  1.00 20.00    -0.314 OA
HETATM   39  C23 DGX  2997       4.958  36.212 239.218  1.00 20.00     0.283 A 
HETATM   40  C22 DGX  2997       3.771  35.460 238.875  1.00 20.00     0.087 A 
HETATM   41  O23 DGX  2997       5.836  35.999 240.059  1.00 20.00    -0.260 OA
ENDBRANCH  17  36
TORSDOF 7
ENDMDL
MODEL 6
REMARK VINA RESULT:      -7.1      5.410      9.863
REMARK  7 active torsions:
REMARK  status: ('A' for Active; 'I' for Inactive)
REMARK    1  A    between atoms: C3_3  and  O3_4 
REMARK    2  A    between atoms: C1X_31  and  O3_4 
REMARK    3  A    between atoms: C12_13  and  O12_14 
REMARK    4  A    between atoms: C14_17  and  O14_18 
REMARK    5  A    between atoms: C17_22  and  C20_25 
REMARK    6  A    between atoms: C3X_33  and  O3X_34 
REMARK    7  A    between atoms: C4X_36  and  O4X_37 
ROOT
HETATM    1  C1  DGX  2997      -0.688  35.467 232.028  1.00 20.00     0.012 C 
HETATM    2  C2  DGX  2997      -2.182  35.179 232.176  1.00 20.00     0.033 C 
HETATM    3  C3  DGX  2997      -2.457  33.945 233.037  1.00 20.00     0.125 C 
HETATM    4  C4  DGX  2997      -1.741  32.752 232.417  1.00 20.00     0.037 C 
HETATM    5  C5  DGX  2997      -0.242  32.963 232.216  1.00 20.00    -0.004 C 
HETATM    6  C6  DGX  2997       0.413  31.734 231.592  1.00 20.00     0.006 C 
HETATM    7  C7  DGX  2997       0.045  31.596 230.117  1.00 20.00     0.008 C 
HETATM    8  C8  DGX  2997       0.537  32.804 229.326  1.00 20.00     0.026 C 
HETATM    9  C9  DGX  2997       0.024  34.119 229.917  1.00 20.00     0.003 C 
HETATM   10  C10 DGX  2997       0.134  34.287 231.486  1.00 20.00    -0.036 C 
HETATM   11  C11 DGX  2997       0.803  35.223 229.210  1.00 20.00     0.038 C 
HETATM   12  C12 DGX  2997       0.716  35.182 227.691  1.00 20.00     0.130 C 
HETATM   13  C13 DGX  2997       1.127  33.820 227.018  1.00 20.00     0.021 C 
HETATM   14  C14 DGX  2997       0.389  32.649 227.757  1.00 20.00     0.072 C 
HETATM   15  C15 DGX  2997      -1.015  32.743 227.118  1.00 20.00     0.040 C 
HETATM   16  C16 DGX  2997      -0.802  33.049 225.636  1.00 20.00     0.013 C 
HETATM   17  C17 DGX  2997       0.493  33.852 225.568  1.00 20.00     0.030 C 
HETATM   18  C18 DGX  2997       2.654  33.615 227.051  1.00 20.00     0.022 C 
HETATM   19  C19 DGX  2997       1.550  34.690 231.942  1.00 20.00     0.016 C 
ENDROOT
BRANCH   3  20
HETATM   20  O3  DGX  2997      -1.978  34.095 234.380  1.00 20.00    -0.356 OA
BRANCH  20  21
HETATM   21  C1X DGX  2997      -1.298  35.304 234.767  1.00 20.00     0.263 C 
HETATM   22  O5X DGX  2997       0.077  35.043 235.057  1.00 20.00    -0.354 OA
HETATM   23  C5X DGX  2997       0.857  36.169 235.492  1.00 20.00     0.152 C 
HETATM   24  C4X DGX  2997       0.229  36.789 236.751  1.00 20.00     0.175 C 
HETATM   25  C6X DGX  2997       2.265  35.662 235.767  1.00 20.00     0.042 C 
HETATM   26  C3X DGX  2997      -1.249  37.125 236.534  1.00 20.00     0.154 C 
HETATM   27  C2X DGX  2997      -1.977  35.885 236.010  1.00 20.00     0.095 C 
BRANCH  24  28
HETATM   28  O4X DGX  2997       0.926  37.990 237.117  1.00 20.00    -0.390 OA
ATOM     29  H4X DGX  2997       1.222  37.907 238.015  1.00  0.00     0.210 HD
ENDBRANCH  24  28
BRANCH  26  30
HETATM   30  O3X DGX  2997      -1.394  38.263 235.661  1.00 20.00    -0.393 OA
ATOM     31  H3X DGX  2997      -1.691  38.021 234.792  1.00  0.00     0.210 HD
ENDBRANCH  26  30
ENDBRANCH  20  21
ENDBRANCH   3  20
BRANCH  12  32
HETATM   32  O12 DGX  2997       1.521  36.257 227.185  1.00 20.00    -0.395 OA
ATOM     33  H12 DGX  2997       1.037  37.063 227.321  1.00  0.00     0.210 HD
ENDBRANCH  12  32
BRANCH  14  34
HETATM   34  O14 DGX  2997       0.908  31.350 227.292  1.00 20.00    -0.389 OA
ATOM     35  H14 DGX  2997       1.705  31.479 226.789  1.00  0.00     0.210 HD
ENDBRANCH  14  34
BRANCH  17  36
HETATM   36  C20 DGX  2997       1.355  33.425 224.415  1.00 20.00    -0.045 A 
HETATM   37  C21 DGX  2997       1.477  32.015 223.971  1.00 20.00     0.213 A 
HETATM   38  O21 DGX  2997       2.494  32.053 222.940  1.00 20.00    -0.314 OA
HETATM   39  C23 DGX  2997       2.857  33.319 222.711  1.00 20.00     0.283 A 
HETATM   40  C22 DGX  2997       2.172  34.173 223.656  1.00 20.00     0.087 A 
HETATM   41  O23 DGX  2997       3.703  33.578 221.851  1.00 20.00    -0.260 OA
ENDBRANCH  17  36
TORSDOF 7
ENDMDL
MODEL 7
REMARK VINA RESULT:      -6.8      3.362      4.499
REMARK  7 active torsions:
REMARK  status: ('A' for Active; 'I' for Inactive)
REMARK    1  A    between atoms: C3_3  and  O3_4 
REMARK    2  A    between atoms: C1X_31  and  O3_4 
REMARK    3  A    between atoms: C12_13  and  O12_14 
REMARK    4  A    between atoms: C14_17  and  O14_18 
REMARK    5  A    between atoms: C17_22  and  C20_25 
REMARK    6  A    between atoms: C3X_33  and  O3X_34 
REMARK    7  A    between atoms: C4X_36  and  O4X_37 
ROOT
HETATM    1  C1  DGX  2997      -1.611  32.382 231.838  1.00 20.00     0.012 C 
HETATM    2  C2  DGX  2997      -2.741  33.393 231.634  1.00 20.00     0.033 C 
HETATM    3  C3  DGX  2997      -2.523  34.273 230.403  1.00 20.00     0.125 C 
HETATM    4  C4  DGX  2997      -1.185  34.987 230.548  1.00 20.00     0.037 C 
HETATM    5  C5  DGX  2997      -0.001  34.049 230.774  1.00 20.00    -0.004 C 
HETATM    6  C6  DGX  2997       1.305  34.826 230.911  1.00 20.00     0.006 C 
HETATM    7  C7  DGX  2997       1.382  35.550 232.254  1.00 20.00     0.008 C 
HETATM    8  C8  DGX  2997       1.343  34.550 233.405  1.00 20.00     0.026 C 
HETATM    9  C9  DGX  2997       0.119  33.636 233.324  1.00 20.00     0.003 C 
HETATM   10  C10 DGX  2997      -0.209  33.005 231.912  1.00 20.00    -0.036 C 
HETATM   11  C11 DGX  2997       0.355  32.536 234.354  1.00 20.00     0.038 C 
HETATM   12  C12 DGX  2997       0.625  33.040 235.764  1.00 20.00     0.130 C 
HETATM   13  C13 DGX  2997       1.807  34.071 235.908  1.00 20.00     0.021 C 
HETATM   14  C14 DGX  2997       1.632  35.192 234.824  1.00 20.00     0.072 C 
HETATM   15  C15 DGX  2997       0.551  36.072 235.489  1.00 20.00     0.040 C 
HETATM   16  C16 DGX  2997       0.887  36.129 236.979  1.00 20.00     0.013 C 
HETATM   17  C17 DGX  2997       1.571  34.801 237.293  1.00 20.00     0.030 C 
HETATM   18  C18 DGX  2997       3.177  33.378 235.768  1.00 20.00     0.022 C 
HETATM   19  C19 DGX  2997       0.668  31.779 231.591  1.00 20.00     0.016 C 
ENDROOT
BRANCH   3  20
HETATM   20  O3  DGX  2997      -2.485  33.515 229.186  1.00 20.00    -0.356 OA
BRANCH  20  21
HETATM   21  C1X DGX  2997      -3.350  33.873 228.093  1.00 20.00     0.263 C 
HETATM   22  O5X DGX  2997      -2.666  33.756 226.844  1.00 20.00    -0.354 OA
HETATM   23  C5X DGX  2997      -3.415  34.122 225.674  1.00 20.00     0.152 C 
HETATM   24  C4X DGX  2997      -3.904  35.575 225.796  1.00 20.00     0.175 C 
HETATM   25  C6X DGX  2997      -2.494  33.947 224.475  1.00 20.00     0.042 C 
HETATM   26  C3X DGX  2997      -4.672  35.801 227.102  1.00 20.00     0.154 C 
HETATM   27  C2X DGX  2997      -3.820  35.319 228.278  1.00 20.00     0.095 C 
BRANCH  24  28
HETATM   28  O4X DGX  2997      -4.762  35.908 224.694  1.00 20.00    -0.390 OA
ATOM     29  H4X DGX  2997      -5.278  36.669 224.930  1.00  0.00     0.210 HD
ENDBRANCH  24  28
BRANCH  26  30
HETATM   30  O3X DGX  2997      -5.963  35.161 227.054  1.00 20.00    -0.393 OA
ATOM     31  H3X DGX  2997      -6.592  35.564 227.641  1.00  0.00     0.210 HD
ENDBRANCH  26  30
ENDBRANCH  20  21
ENDBRANCH   3  20
BRANCH  12  32
HETATM   32  O12 DGX  2997       0.855  31.893 236.594  1.00 20.00    -0.395 OA
ATOM     33  H12 DGX  2997       1.501  31.351 236.159  1.00  0.00     0.210 HD
ENDBRANCH  12  32
BRANCH  14  34
HETATM   34  O14 DGX  2997       2.828  36.055 234.792  1.00 20.00    -0.389 OA
ATOM     35  H14 DGX  2997       3.537  35.613 234.339  1.00  0.00     0.210 HD
ENDBRANCH  14  34
BRANCH  17  36
HETATM   36  C20 DGX  2997       2.752  34.982 238.201  1.00 20.00    -0.045 A 
HETATM   37  C21 DGX  2997       3.604  36.196 238.195  1.00 20.00     0.213 A 
HETATM   38  O21 DGX  2997       4.677  35.883 239.115  1.00 20.00    -0.314 OA
HETATM   39  C23 DGX  2997       4.451  34.696 239.685  1.00 20.00     0.283 A 
HETATM   40  C22 DGX  2997       3.267  34.116 239.090  1.00 20.00     0.087 A 
HETATM   41  O23 DGX  2997       5.240  34.247 240.521  1.00 20.00    -0.260 OA
ENDBRANCH  17  36
TORSDOF 7
ENDMDL
MODEL 8
REMARK VINA RESULT:      -6.8      4.290     10.523
REMARK  7 active torsions:
REMARK  status: ('A' for Active; 'I' for Inactive)
REMARK    1  A    between atoms: C3_3  and  O3_4 
REMARK    2  A    between atoms: C1X_31  and  O3_4 
REMARK    3  A    between atoms: C12_13  and  O12_14 
REMARK    4  A    between atoms: C14_17  and  O14_18 
REMARK    5  A    between atoms: C17_22  and  C20_25 
REMARK    6  A    between atoms: C3X_33  and  O3X_34 
REMARK    7  A    between atoms: C4X_36  and  O4X_37 
ROOT
HETATM    1  C1  DGX  2997       0.526  33.799 231.375  1.00 20.00     0.012 C 
HETATM    2  C2  DGX  2997       1.538  34.811 231.913  1.00 20.00     0.033 C 
HETATM    3  C3  DGX  2997       1.236  35.232 233.352  1.00 20.00     0.125 C 
HETATM    4  C4  DGX  2997      -0.174  35.806 233.402  1.00 20.00     0.037 C 
HETATM    5  C5  DGX  2997      -1.249  34.864 232.865  1.00 20.00    -0.004 C 
HETATM    6  C6  DGX  2997      -2.635  35.499 232.943  1.00 20.00     0.006 C 
HETATM    7  C7  DGX  2997      -2.804  36.594 231.893  1.00 20.00     0.008 C 
HETATM    8  C8  DGX  2997      -2.666  36.015 230.488  1.00 20.00     0.026 C 
HETATM    9  C9  DGX  2997      -1.346  35.260 230.310  1.00 20.00     0.003 C 
HETATM   10  C10 DGX  2997      -0.937  34.258 231.463  1.00 20.00    -0.036 C 
HETATM   11  C11 DGX  2997      -1.468  34.520 228.982  1.00 20.00     0.038 C 
HETATM   12  C12 DGX  2997      -1.807  35.408 227.794  1.00 20.00     0.130 C 
HETATM   13  C13 DGX  2997      -3.097  36.298 227.949  1.00 20.00     0.021 C 
HETATM   14  C14 DGX  2997      -3.037  37.034 229.334  1.00 20.00     0.072 C 
HETATM   15  C15 DGX  2997      -2.067  38.190 229.005  1.00 20.00     0.040 C 
HETATM   16  C16 DGX  2997      -2.421  38.674 227.599  1.00 20.00     0.013 C 
HETATM   17  C17 DGX  2997      -2.956  37.446 226.869  1.00 20.00     0.030 C 
HETATM   18  C18 DGX  2997      -4.380  35.452 227.830  1.00 20.00     0.022 C 
HETATM   19  C19 DGX  2997      -1.670  32.906 231.362  1.00 20.00     0.016 C 
ENDROOT
BRANCH   3  20
HETATM   20  O3  DGX  2997       1.294  34.131 234.270  1.00 20.00    -0.356 OA
BRANCH  20  21
HETATM   21  C1X DGX  2997       1.403  34.383 235.683  1.00 20.00     0.263 C 
HETATM   22  O5X DGX  2997       1.960  35.675 235.928  1.00 20.00    -0.354 OA
HETATM   23  C5X DGX  2997       2.154  36.031 237.306  1.00 20.00     0.152 C 
HETATM   24  C4X DGX  2997       3.064  35.000 237.992  1.00 20.00     0.175 C 
HETATM   25  C6X DGX  2997       2.775  37.421 237.330  1.00 20.00     0.042 C 
HETATM   26  C3X DGX  2997       2.539  33.574 237.804  1.00 20.00     0.154 C 
HETATM   27  C2X DGX  2997       2.302  33.316 236.314  1.00 20.00     0.095 C 
BRANCH  24  28
HETATM   28  O4X DGX  2997       3.159  35.273 239.399  1.00 20.00    -0.390 OA
ATOM     29  H4X DGX  2997       3.869  34.758 239.762  1.00  0.00     0.210 HD
ENDBRANCH  24  28
BRANCH  26  30
HETATM   30  O3X DGX  2997       1.356  33.353 238.599  1.00 20.00    -0.393 OA
ATOM     31  H3X DGX  2997       1.534  32.853 239.387  1.00  0.00     0.210 HD
ENDBRANCH  26  30
ENDBRANCH  20  21
ENDBRANCH   3  20
BRANCH  12  32
HETATM   32  O12 DGX  2997      -1.915  34.561 226.641  1.00 20.00    -0.395 OA
ATOM     33  H12 DGX  2997      -2.152  35.111 225.905  1.00  0.00     0.210 HD
ENDBRANCH  12  32
BRANCH  14  34
HETATM   34  O14 DGX  2997      -4.321  37.709 229.602  1.00 20.00    -0.389 OA
ATOM     35  H14 DGX  2997      -4.165  38.595 229.910  1.00  0.00     0.210 HD
ENDBRANCH  14  34
BRANCH  17  36
HETATM   36  C20 DGX  2997      -4.158  37.773 226.032  1.00 20.00    -0.045 A 
HETATM   37  C21 DGX  2997      -4.414  37.167 224.703  1.00 20.00     0.213 A 
HETATM   38  O21 DGX  2997      -5.588  37.861 224.214  1.00 20.00    -0.314 OA
HETATM   39  C23 DGX  2997      -6.047  38.689 225.157  1.00 20.00     0.283 A 
HETATM   40  C22 DGX  2997      -5.136  38.662 226.279  1.00 20.00     0.087 A 
HETATM   41  O23 DGX  2997      -7.058  39.366 224.951  1.00 20.00    -0.260 OA
ENDBRANCH  17  36
TORSDOF 7
ENDMDL
MODEL 9
REMARK VINA RESULT:      -6.7      3.343      4.483
REMARK  7 active torsions:
REMARK  status: ('A' for Active; 'I' for Inactive)
REMARK    1  A    between atoms: C3_3  and  O3_4 
REMARK    2  A    between atoms: C1X_31  and  O3_4 
REMARK    3  A    between atoms: C12_13  and  O12_14 
REMARK    4  A    between atoms: C14_17  and  O14_18 
REMARK    5  A    between atoms: C17_22  and  C20_25 
REMARK    6  A    between atoms: C3X_33  and  O3X_34 
REMARK    7  A    between atoms: C4X_36  and  O4X_37 
ROOT
HETATM    1  C1  DGX  2997      -1.400  32.969 230.612  1.00 20.00     0.012 C 
HETATM    2  C2  DGX  2997      -2.872  32.706 230.932  1.00 20.00     0.033 C 
HETATM    3  C3  DGX  2997      -3.797  33.776 230.350  1.00 20.00     0.125 C 
HETATM    4  C4  DGX  2997      -3.366  35.134 230.891  1.00 20.00     0.037 C 
HETATM    5  C5  DGX  2997      -1.900  35.470 230.630  1.00 20.00    -0.004 C 
HETATM    6  C6  DGX  2997      -1.534  36.840 231.196  1.00 20.00     0.006 C 
HETATM    7  C7  DGX  2997      -1.450  36.807 232.720  1.00 20.00     0.008 C 
HETATM    8  C8  DGX  2997      -0.362  35.840 233.176  1.00 20.00     0.026 C 
HETATM    9  C9  DGX  2997      -0.562  34.440 232.590  1.00 20.00     0.003 C 
HETATM   10  C10 DGX  2997      -0.895  34.354 231.046  1.00 20.00    -0.036 C 
HETATM   11  C11 DGX  2997       0.720  33.674 232.899  1.00 20.00     0.038 C 
HETATM   12  C12 DGX  2997       1.100  33.651 234.373  1.00 20.00     0.130 C 
HETATM   13  C13 DGX  2997       1.219  35.056 235.072  1.00 20.00     0.021 C 
HETATM   14  C14 DGX  2997      -0.059  35.899 234.729  1.00 20.00     0.072 C 
HETATM   15  C15 DGX  2997      -1.078  35.297 235.722  1.00 20.00     0.040 C 
HETATM   16  C16 DGX  2997      -0.327  35.058 237.031  1.00 20.00     0.013 C 
HETATM   17  C17 DGX  2997       1.116  34.770 236.625  1.00 20.00     0.030 C 
HETATM   18  C18 DGX  2997       2.499  35.795 234.635  1.00 20.00     0.022 C 
HETATM   19  C19 DGX  2997       0.358  34.494 230.160  1.00 20.00     0.016 C 
ENDROOT
BRANCH   3  20
HETATM   20  O3  DGX  2997      -3.737  33.835 228.918  1.00 20.00    -0.356 OA
BRANCH  20  21
HETATM   21  C1X DGX  2997      -4.510  34.820 228.209  1.00 20.00     0.263 C 
HETATM   22  O5X DGX  2997      -5.476  34.194 227.362  1.00 20.00    -0.354 OA
HETATM   23  C5X DGX  2997      -6.290  35.075 226.571  1.00 20.00     0.152 C 
HETATM   24  C4X DGX  2997      -5.398  35.956 225.680  1.00 20.00     0.175 C 
HETATM   25  C6X DGX  2997      -7.217  34.203 225.736  1.00 20.00     0.042 C 
HETATM   26  C3X DGX  2997      -4.334  36.690 226.502  1.00 20.00     0.154 C 
HETATM   27  C2X DGX  2997      -3.570  35.678 227.357  1.00 20.00     0.095 C 
BRANCH  24  28
HETATM   28  O4X DGX  2997      -6.192  36.927 224.982  1.00 20.00    -0.390 OA
ATOM     29  H4X DGX  2997      -7.091  36.621 224.953  1.00  0.00     0.210 HD
ENDBRANCH  24  28
BRANCH  26  30
HETATM   30  O3X DGX  2997      -4.929  37.742 227.288  1.00 20.00    -0.393 OA
ATOM     31  H3X DGX  2997      -4.285  38.247 227.770  1.00  0.00     0.210 HD
ENDBRANCH  26  30
ENDBRANCH  20  21
ENDBRANCH   3  20
BRANCH  12  32
HETATM   32  O12 DGX  2997       2.333  32.926 234.487  1.00 20.00    -0.395 OA
ATOM     33  H12 DGX  2997       2.114  32.010 234.609  1.00  0.00     0.210 HD
ENDBRANCH  12  32
BRANCH  14  34
HETATM   34  O14 DGX  2997       0.113  37.289 235.192  1.00 20.00    -0.389 OA
ATOM     35  H14 DGX  2997      -0.709  37.623 235.534  1.00  0.00     0.210 HD
ENDBRANCH  14  34
BRANCH  17  36
HETATM   36  C20 DGX  2997       2.097  35.455 237.532  1.00 20.00    -0.045 A 
HETATM   37  C21 DGX  2997       2.192  36.929 237.663  1.00 20.00     0.213 A 
HETATM   38  O21 DGX  2997       3.339  37.138 238.522  1.00 20.00    -0.314 OA
HETATM   39  C23 DGX  2997       3.806  35.960 238.944  1.00 20.00     0.283 A 
HETATM   40  C22 DGX  2997       3.054  34.906 238.299  1.00 20.00     0.087 A 
HETATM   41  O23 DGX  2997       4.775  35.912 239.707  1.00 20.00    -0.260 OA
ENDBRANCH  17  36
TORSDOF 7
ENDMDL
