MODEL 1
REMARK VINA RESULT:      -7.1      0.000      0.000
REMARK  4 active torsions:
REMARK  status: ('A' for Active; 'I' for Inactive)
REMARK    1  A    between atoms: C3_4  and  O_21 
REMARK    2  A    between atoms: C17_18  and  C7_8 
REMARK    3  A    between atoms: C10_11  and  C9_10 
REMARK       I    between atoms: C9_10  and  N_20 
REMARK    4  A    between atoms: C17_18  and  C18_19 
ROOT
HETATM    1  C   IMN  4505       3.003  33.367 235.739  1.00 20.00     0.054 A 
HETATM    2  C1  IMN  4505       3.665  33.535 237.061  1.00 20.00     0.006 A 
HETATM    3  C2  IMN  4505       4.461  32.524 237.569  1.00 20.00     0.051 A 
HETATM    4  C3  IMN  4505       4.651  31.340 236.873  1.00 20.00     0.069 A 
HETATM    5  C4  IMN  4505       4.040  31.165 235.636  1.00 20.00     0.039 A 
HETATM    6  C5  IMN  4505       3.228  32.159 235.075  1.00 20.00     0.034 A 
HETATM    7  C7  IMN  4505       3.298  34.874 237.598  1.00 20.00     0.006 A 
HETATM    8  C8  IMN  4505       2.424  35.448 236.544  1.00 20.00     0.028 A 
HETATM    9  C9  IMN  4505       1.337  34.725 234.603  1.00 20.00     0.263 C 
HETATM   10  C16 IMN  4505       1.744  36.790 236.534  1.00 20.00     0.070 C 
HETATM   11  N   IMN  4505       2.325  34.527 235.558  1.00 20.00    -0.281 N 
HETATM   12  O1  IMN  4505       0.345  35.306 234.979  1.00 20.00    -0.267 OA
ENDROOT
BRANCH   9  13
HETATM   13  C10 IMN  4505       1.150  34.198 233.201  1.00 20.00     0.033 A 
HETATM   14  C15 IMN  4505       0.767  32.923 232.788  1.00 20.00     0.018 A 
HETATM   15  C14 IMN  4505       0.643  32.648 231.425  1.00 20.00     0.025 A 
HETATM   16  C13 IMN  4505       0.889  33.630 230.477  1.00 20.00     0.034 A 
HETATM   17  C12 IMN  4505       1.264  34.899 230.884  1.00 20.00     0.025 A 
HETATM   18 CL   IMN  4505       0.725  33.273 228.728  1.00 20.00    -0.084 Cl
HETATM   19  C11 IMN  4505       1.392  35.173 232.234  1.00 20.00     0.018 A 
ENDBRANCH   9  13
BRANCH   7  20
HETATM   20  C17 IMN  4505       3.800  35.350 238.952  1.00 20.00     0.098 C 
BRANCH  20  21
HETATM   21  C18 IMN  4505       5.085  36.138 239.211  1.00 20.00     0.199 C 
HETATM   22  O2  IMN  4505       5.894  35.967 240.113  1.00 20.00    -0.644 OA
HETATM   23  O3  IMN  4505       5.326  37.149 238.372  1.00 20.00    -0.644 OA
ENDBRANCH  20  21
ENDBRANCH   7  20
BRANCH   4  24
HETATM   24  O   IMN  4505       5.458  30.367 237.428  1.00 20.00    -0.356 OA
HETATM   25  C6  IMN  4505       5.742  30.268 238.825  1.00 20.00     0.210 C 
ENDBRANCH   4  24
TORSDOF 4
ENDMDL
MODEL 2
REMARK VINA RESULT:      -7.0      2.423      2.802
REMARK  4 active torsions:
REMARK  status: ('A' for Active; 'I' for Inactive)
REMARK    1  A    between atoms: C3_4  and  O_21 
REMARK    2  A    between atoms: C17_18  and  C7_8 
REMARK    3  A    between atoms: C10_11  and  C9_10 
REMARK       I    between atoms: C9_10  and  N_20 
REMARK    4  A    between atoms: C17_18  and  C18_19 
ROOT
HETATM    1  C   IMN  4505       1.194  34.725 235.446  1.00 20.00     0.054 A 
HETATM    2  C1  IMN  4505       2.354  34.669 236.377  1.00 20.00     0.006 A 
HETATM    3  C2  IMN  4505       3.252  33.619 236.299  1.00 20.00     0.051 A 
HETATM    4  C3  IMN  4505       3.091  32.602 235.370  1.00 20.00     0.069 A 
HETATM    5  C4  IMN  4505       2.014  32.638 234.492  1.00 20.00     0.039 A 
HETATM    6  C5  IMN  4505       1.078  33.680 234.526  1.00 20.00     0.034 A 
HETATM    7  C7  IMN  4505       2.293  35.859 237.269  1.00 20.00     0.006 A 
HETATM    8  C8  IMN  4505       1.080  36.581 236.809  1.00 20.00     0.028 A 
HETATM    9  C9  IMN  4505      -0.744  36.192 235.396  1.00 20.00     0.263 C 
HETATM   10  C16 IMN  4505       0.506  37.865 237.345  1.00 20.00     0.070 C 
HETATM   11  N   IMN  4505       0.545  35.864 235.794  1.00 20.00    -0.281 N 
HETATM   12  O1  IMN  4505      -1.467  36.640 236.256  1.00 20.00    -0.267 OA
ENDROOT
BRANCH   9  13
HETATM   13  C10 IMN  4505      -1.518  35.937 234.126  1.00 20.00     0.033 A 
HETATM   14  C15 IMN  4505      -2.735  35.277 233.959  1.00 20.00     0.018 A 
HETATM   15  C14 IMN  4505      -3.287  35.161 232.682  1.00 20.00     0.025 A 
HETATM   16  C13 IMN  4505      -2.642  35.699 231.578  1.00 20.00     0.034 A 
HETATM   17  C12 IMN  4505      -1.436  36.358 231.741  1.00 20.00     0.025 A 
HETATM   18 CL   IMN  4505      -3.356  35.548 229.941  1.00 20.00    -0.084 Cl
HETATM   19  C11 IMN  4505      -0.885  36.472 233.005  1.00 20.00     0.018 A 
ENDBRANCH   9  13
BRANCH   7  20
HETATM   20  C17 IMN  4505       3.331  36.090 238.355  1.00 20.00     0.098 C 
BRANCH  20  21
HETATM   21  C18 IMN  4505       4.641  36.865 238.200  1.00 20.00     0.199 C 
HETATM   22  O2  IMN  4505       5.695  36.669 238.790  1.00 20.00    -0.644 OA
HETATM   23  O3  IMN  4505       4.611  37.892 237.348  1.00 20.00    -0.644 OA
ENDBRANCH  20  21
ENDBRANCH   7  20
BRANCH   4  24
HETATM   24  O   IMN  4505       4.021  31.582 235.338  1.00 20.00    -0.356 OA
HETATM   25  C6  IMN  4505       4.747  31.128 236.481  1.00 20.00     0.210 C 
ENDBRANCH   4  24
TORSDOF 4
ENDMDL
MODEL 3
REMARK VINA RESULT:      -6.9      7.929     12.339
REMARK  4 active torsions:
REMARK  status: ('A' for Active; 'I' for Inactive)
REMARK    1  A    between atoms: C3_4  and  O_21 
REMARK    2  A    between atoms: C17_18  and  C7_8 
REMARK    3  A    between atoms: C10_11  and  C9_10 
REMARK       I    between atoms: C9_10  and  N_20 
REMARK    4  A    between atoms: C17_18  and  C18_19 
ROOT
HETATM    1  C   IMN  4505      -1.622  39.436 227.814  1.00 20.00     0.054 A 
HETATM    2  C1  IMN  4505      -1.940  40.403 226.730  1.00 20.00     0.006 A 
HETATM    3  C2  IMN  4505      -1.107  41.484 226.501  1.00 20.00     0.051 A 
HETATM    4  C3  IMN  4505       0.025  41.695 227.273  1.00 20.00     0.069 A 
HETATM    5  C4  IMN  4505       0.338  40.801 228.290  1.00 20.00     0.039 A 
HETATM    6  C5  IMN  4505      -0.469  39.688 228.560  1.00 20.00     0.034 A 
HETATM    7  C7  IMN  4505      -3.197  39.961 226.065  1.00 20.00     0.006 A 
HETATM    8  C8  IMN  4505      -3.565  38.723 226.798  1.00 20.00     0.028 A 
HETATM    9  C9  IMN  4505      -2.909  37.591 228.738  1.00 20.00     0.263 C 
HETATM   10  C16 IMN  4505      -4.755  37.831 226.571  1.00 20.00     0.070 C 
HETATM   11  N   IMN  4505      -2.624  38.524 227.749  1.00 20.00    -0.281 N 
HETATM   12  O1  IMN  4505      -4.078  37.453 229.016  1.00 20.00    -0.267 OA
ENDROOT
BRANCH   9  13
HETATM   13  C10 IMN  4505      -2.036  36.816 229.695  1.00 20.00     0.033 A 
HETATM   14  C15 IMN  4505      -2.072  36.791 231.088  1.00 20.00     0.018 A 
HETATM   15  C14 IMN  4505      -1.170  35.987 231.786  1.00 20.00     0.025 A 
HETATM   16  C13 IMN  4505      -0.242  35.208 231.110  1.00 20.00     0.034 A 
HETATM   17  C12 IMN  4505      -0.207  35.228 229.727  1.00 20.00     0.025 A 
HETATM   18 CL   IMN  4505       0.913  34.176 232.011  1.00 20.00    -0.084 Cl
HETATM   19  C11 IMN  4505      -1.098  36.027 229.032  1.00 20.00     0.018 A 
ENDBRANCH   9  13
BRANCH   7  20
HETATM   20  C17 IMN  4505      -3.809  40.751 224.919  1.00 20.00     0.098 C 
BRANCH  20  21
HETATM   21  C18 IMN  4505      -3.738  40.387 223.435  1.00 20.00     0.199 C 
HETATM   22  O2  IMN  4505      -4.641  39.955 222.730  1.00 20.00    -0.644 OA
HETATM   23  O3  IMN  4505      -2.542  40.527 222.858  1.00 20.00    -0.644 OA
ENDBRANCH  20  21
ENDBRANCH   7  20
BRANCH   4  24
HETATM   24  O   IMN  4505       0.820  42.789 226.996  1.00 20.00    -0.356 OA
HETATM   25  C6  IMN  4505       2.047  43.074 227.670  1.00 20.00     0.210 C 
ENDBRANCH   4  24
TORSDOF 4
ENDMDL
MODEL 4
REMARK VINA RESULT:      -6.8      9.193     12.423
REMARK  4 active torsions:
REMARK  status: ('A' for Active; 'I' for Inactive)
REMARK    1  A    between atoms: C3_4  and  O_21 
REMARK    2  A    between atoms: C17_18  and  C7_8 
REMARK    3  A    between atoms: C10_11  and  C9_10 
REMARK       I    between atoms: C9_10  and  N_20 
REMARK    4  A    between atoms: C17_18  and  C18_19 
ROOT
HETATM    1  C   IMN  4505      -2.057  38.632 227.888  1.00 20.00     0.054 A 
HETATM    2  C1  IMN  4505      -3.311  37.848 227.723  1.00 20.00     0.006 A 
HETATM    3  C2  IMN  4505      -3.514  36.703 228.472  1.00 20.00     0.051 A 
HETATM    4  C3  IMN  4505      -2.562  36.256 229.375  1.00 20.00     0.069 A 
HETATM    5  C4  IMN  4505      -1.384  36.975 229.542  1.00 20.00     0.039 A 
HETATM    6  C5  IMN  4505      -1.131  38.144 228.813  1.00 20.00     0.034 A 
HETATM    7  C7  IMN  4505      -4.153  38.527 226.699  1.00 20.00     0.006 A 
HETATM    8  C8  IMN  4505      -3.342  39.707 226.305  1.00 20.00     0.028 A 
HETATM    9  C9  IMN  4505      -1.166  40.507 226.622  1.00 20.00     0.263 C 
HETATM   10  C16 IMN  4505      -3.682  40.767 225.293  1.00 20.00     0.070 C 
HETATM   11  N   IMN  4505      -2.197  39.667 227.024  1.00 20.00    -0.281 N 
HETATM   12  O1  IMN  4505      -1.121  40.762 225.440  1.00 20.00    -0.267 OA
ENDROOT
BRANCH   9  13
HETATM   13  C10 IMN  4505       0.053  41.042 227.332  1.00 20.00     0.033 A 
HETATM   14  C15 IMN  4505       0.142  41.636 228.590  1.00 20.00     0.018 A 
HETATM   15  C14 IMN  4505       1.386  42.055 229.067  1.00 20.00     0.025 A 
HETATM   16  C13 IMN  4505       2.533  41.882 228.307  1.00 20.00     0.034 A 
HETATM   17  C12 IMN  4505       2.448  41.288 227.060  1.00 20.00     0.025 A 
HETATM   18 CL   IMN  4505       4.128  42.420 228.925  1.00 20.00    -0.084 Cl
HETATM   19  C11 IMN  4505       1.216  40.875 226.583  1.00 20.00     0.018 A 
ENDBRANCH   9  13
BRANCH   7  20
HETATM   20  C17 IMN  4505      -5.502  37.964 226.282  1.00 20.00     0.098 C 
BRANCH  20  21
HETATM   21  C18 IMN  4505      -6.284  38.338 225.022  1.00 20.00     0.199 C 
HETATM   22  O2  IMN  4505      -6.926  39.361 224.821  1.00 20.00    -0.644 OA
HETATM   23  O3  IMN  4505      -6.290  37.425 224.049  1.00 20.00    -0.644 OA
ENDBRANCH  20  21
ENDBRANCH   7  20
BRANCH   4  24
HETATM   24  O   IMN  4505      -2.821  35.107 230.096  1.00 20.00    -0.356 OA
HETATM   25  C6  IMN  4505      -3.865  34.186 229.780  1.00 20.00     0.210 C 
ENDBRANCH   4  24
TORSDOF 4
ENDMDL
MODEL 5
REMARK VINA RESULT:      -6.5      3.894      7.061
REMARK  4 active torsions:
REMARK  status: ('A' for Active; 'I' for Inactive)
REMARK    1  A    between atoms: C3_4  and  O_21 
REMARK    2  A    between atoms: C17_18  and  C7_8 
REMARK    3  A    between atoms: C10_11  and  C9_10 
REMARK       I    between atoms: C9_10  and  N_20 
REMARK    4  A    between atoms: C17_18  and  C18_19 
ROOT
HETATM    1  C   IMN  4505       1.249  34.702 235.609  1.00 20.00     0.054 A 
HETATM    2  C1  IMN  4505       0.169  34.474 234.610  1.00 20.00     0.006 A 
HETATM    3  C2  IMN  4505       0.240  33.393 233.750  1.00 20.00     0.051 A 
HETATM    4  C3  IMN  4505       1.310  32.512 233.789  1.00 20.00     0.069 A 
HETATM    5  C4  IMN  4505       2.328  32.709 234.716  1.00 20.00     0.039 A 
HETATM    6  C5  IMN  4505       2.302  33.785 235.612  1.00 20.00     0.034 A 
HETATM    7  C7  IMN  4505      -0.845  35.553 234.767  1.00 20.00     0.006 A 
HETATM    8  C8  IMN  4505      -0.309  36.379 235.878  1.00 20.00     0.028 A 
HETATM    9  C9  IMN  4505       1.677  36.574 237.100  1.00 20.00     0.263 C 
HETATM   10  C16 IMN  4505      -0.908  37.621 236.481  1.00 20.00     0.070 C 
HETATM   11  N   IMN  4505       0.858  35.819 236.270  1.00 20.00    -0.281 N 
HETATM   12  O1  IMN  4505       1.606  37.774 236.965  1.00 20.00    -0.267 OA
ENDROOT
BRANCH   9  13
HETATM   13  C10 IMN  4505       2.800  36.206 238.038  1.00 20.00     0.033 A 
HETATM   14  C15 IMN  4505       3.020  35.006 238.713  1.00 20.00     0.018 A 
HETATM   15  C14 IMN  4505       4.142  34.872 239.533  1.00 20.00     0.025 A 
HETATM   16  C13 IMN  4505       5.044  35.916 239.677  1.00 20.00     0.034 A 
HETATM   17  C12 IMN  4505       4.832  37.106 239.004  1.00 20.00     0.025 A 
HETATM   18 CL   IMN  4505       6.485  35.737 240.729  1.00 20.00    -0.084 Cl
HETATM   19  C11 IMN  4505       3.719  37.243 238.194  1.00 20.00     0.018 A 
ENDBRANCH   9  13
BRANCH   7  20
HETATM   20  C17 IMN  4505      -2.075  35.620 233.876  1.00 20.00     0.098 C 
BRANCH  20  21
HETATM   21  C18 IMN  4505      -2.170  36.326 232.523  1.00 20.00     0.199 C 
HETATM   22  O2  IMN  4505      -1.318  37.022 231.985  1.00 20.00    -0.644 OA
HETATM   23  O3  IMN  4505      -3.331  36.192 231.877  1.00 20.00    -0.644 OA
ENDBRANCH  20  21
ENDBRANCH   7  20
BRANCH   4  24
HETATM   24  O   IMN  4505       1.326  31.449 232.908  1.00 20.00    -0.356 OA
HETATM   25  C6  IMN  4505       0.556  31.400 231.705  1.00 20.00     0.210 C 
ENDBRANCH   4  24
TORSDOF 4
ENDMDL
MODEL 6
REMARK VINA RESULT:      -6.4      4.647      8.995
REMARK  4 active torsions:
REMARK  status: ('A' for Active; 'I' for Inactive)
REMARK    1  A    between atoms: C3_4  and  O_21 
REMARK    2  A    between atoms: C17_18  and  C7_8 
REMARK    3  A    between atoms: C10_11  and  C9_10 
REMARK       I    between atoms: C9_10  and  N_20 
REMARK    4  A    between atoms: C17_18  and  C18_19 
ROOT
HETATM    1  C   IMN  4505      -0.058  35.402 230.349  1.00 20.00     0.054 A 
HETATM    2  C1  IMN  4505      -0.814  35.648 229.092  1.00 20.00     0.006 A 
HETATM    3  C2  IMN  4505      -0.175  35.548 227.869  1.00 20.00     0.051 A 
HETATM    4  C3  IMN  4505       1.173  35.231 227.787  1.00 20.00     0.069 A 
HETATM    5  C4  IMN  4505       1.896  34.997 228.951  1.00 20.00     0.039 A 
HETATM    6  C5  IMN  4505       1.295  35.080 230.214  1.00 20.00     0.034 A 
HETATM    7  C7  IMN  4505      -2.221  35.976 229.452  1.00 20.00     0.006 A 
HETATM    8  C8  IMN  4505      -2.231  35.899 230.935  1.00 20.00     0.028 A 
HETATM    9  C9  IMN  4505      -0.680  35.724 232.678  1.00 20.00     0.263 C 
HETATM   10  C16 IMN  4505      -3.388  36.139 231.867  1.00 20.00     0.070 C 
HETATM   11  N   IMN  4505      -0.978  35.575 231.329  1.00 20.00    -0.281 N 
HETATM   12  O1  IMN  4505      -1.283  36.595 233.261  1.00 20.00    -0.267 OA
ENDROOT
BRANCH   9  13
HETATM   13  C10 IMN  4505       0.396  35.137 233.558  1.00 20.00     0.033 A 
HETATM   14  C15 IMN  4505       0.694  33.797 233.801  1.00 20.00     0.018 A 
HETATM   15  C14 IMN  4505       1.752  33.469 234.651  1.00 20.00     0.025 A 
HETATM   16  C13 IMN  4505       2.514  34.462 235.251  1.00 20.00     0.034 A 
HETATM   17  C12 IMN  4505       2.223  35.793 235.008  1.00 20.00     0.025 A 
HETATM   18 CL   IMN  4505       3.873  34.036 236.340  1.00 20.00    -0.084 Cl
HETATM   19  C11 IMN  4505       1.173  36.120 234.169  1.00 20.00     0.018 A 
ENDBRANCH   9  13
BRANCH   7  20
HETATM   20  C17 IMN  4505      -3.257  36.301 228.388  1.00 20.00     0.098 C 
BRANCH  20  21
HETATM   21  C18 IMN  4505      -3.720  37.700 227.980  1.00 20.00     0.199 C 
HETATM   22  O2  IMN  4505      -4.779  38.008 227.447  1.00 20.00    -0.644 OA
HETATM   23  O3  IMN  4505      -2.851  38.689 228.202  1.00 20.00    -0.644 OA
ENDBRANCH  20  21
ENDBRANCH   7  20
BRANCH   4  24
HETATM   24  O   IMN  4505       1.757  35.143 226.539  1.00 20.00    -0.356 OA
HETATM   25  C6  IMN  4505       1.643  34.004 225.684  1.00 20.00     0.210 C 
ENDBRANCH   4  24
TORSDOF 4
ENDMDL
MODEL 7
REMARK VINA RESULT:      -6.3      2.299      4.710
REMARK  4 active torsions:
REMARK  status: ('A' for Active; 'I' for Inactive)
REMARK    1  A    between atoms: C3_4  and  O_21 
REMARK    2  A    between atoms: C17_18  and  C7_8 
REMARK    3  A    between atoms: C10_11  and  C9_10 
REMARK       I    between atoms: C9_10  and  N_20 
REMARK    4  A    between atoms: C17_18  and  C18_19 
ROOT
HETATM    1  C   IMN  4505       1.485  34.978 234.344  1.00 20.00     0.054 A 
HETATM    2  C1  IMN  4505       2.236  34.379 235.480  1.00 20.00     0.006 A 
HETATM    3  C2  IMN  4505       2.737  35.190 236.482  1.00 20.00     0.051 A 
HETATM    4  C3  IMN  4505       2.565  36.565 236.447  1.00 20.00     0.069 A 
HETATM    5  C4  IMN  4505       1.866  37.143 235.394  1.00 20.00     0.039 A 
HETATM    6  C5  IMN  4505       1.333  36.367 234.357  1.00 20.00     0.034 A 
HETATM    7  C7  IMN  4505       2.288  32.904 235.277  1.00 20.00     0.006 A 
HETATM    8  C8  IMN  4505       1.545  32.698 234.008  1.00 20.00     0.028 A 
HETATM    9  C9  IMN  4505       0.679  34.001 232.268  1.00 20.00     0.263 C 
HETATM   10  C16 IMN  4505       1.272  31.402 233.295  1.00 20.00     0.070 C 
HETATM   11  N   IMN  4505       1.144  33.915 233.574  1.00 20.00    -0.281 N 
HETATM   12  O1  IMN  4505       1.156  33.214 231.483  1.00 20.00    -0.267 OA
ENDROOT
BRANCH   9  13
HETATM   13  C10 IMN  4505      -0.186  35.012 231.555  1.00 20.00     0.033 A 
HETATM   14  C15 IMN  4505      -1.243  35.769 232.057  1.00 20.00     0.018 A 
HETATM   15  C14 IMN  4505      -1.909  36.664 231.218  1.00 20.00     0.025 A 
HETATM   16  C13 IMN  4505      -1.527  36.812 229.893  1.00 20.00     0.034 A 
HETATM   17  C12 IMN  4505      -0.475  36.065 229.393  1.00 20.00     0.025 A 
HETATM   18 CL   IMN  4505      -2.385  37.965 228.820  1.00 20.00    -0.084 Cl
HETATM   19  C11 IMN  4505       0.184  35.175 230.221  1.00 20.00     0.018 A 
ENDBRANCH   9  13
BRANCH   7  20
HETATM   20  C17 IMN  4505       3.007  31.994 236.260  1.00 20.00     0.098 C 
BRANCH  20  21
HETATM   21  C18 IMN  4505       4.379  31.351 236.054  1.00 20.00     0.199 C 
HETATM   22  O2  IMN  4505       5.266  31.208 236.886  1.00 20.00    -0.644 OA
HETATM   23  O3  IMN  4505       4.645  30.930 234.816  1.00 20.00    -0.644 OA
ENDBRANCH  20  21
ENDBRANCH   7  20
BRANCH   4  24
HETATM   24  O   IMN  4505       3.086  37.324 237.477  1.00 20.00    -0.356 OA
HETATM   25  C6  IMN  4505       4.422  37.196 237.965  1.00 20.00     0.210 C 
ENDBRANCH   4  24
TORSDOF 4
ENDMDL
MODEL 8
REMARK VINA RESULT:      -6.3      8.851     11.894
REMARK  4 active torsions:
REMARK  status: ('A' for Active; 'I' for Inactive)
REMARK    1  A    between atoms: C3_4  and  O_21 
REMARK    2  A    between atoms: C17_18  and  C7_8 
REMARK    3  A    between atoms: C10_11  and  C9_10 
REMARK       I    between atoms: C9_10  and  N_20 
REMARK    4  A    between atoms: C17_18  and  C18_19 
ROOT
HETATM    1  C   IMN  4505      -2.759  38.943 227.341  1.00 20.00     0.054 A 
HETATM    2  C1  IMN  4505      -1.597  39.120 228.254  1.00 20.00     0.006 A 
HETATM    3  C2  IMN  4505      -1.433  38.276 229.337  1.00 20.00     0.051 A 
HETATM    4  C3  IMN  4505      -2.342  37.262 229.602  1.00 20.00     0.069 A 
HETATM    5  C4  IMN  4505      -3.433  37.081 228.760  1.00 20.00     0.039 A 
HETATM    6  C5  IMN  4505      -3.643  37.905 227.647  1.00 20.00     0.034 A 
HETATM    7  C7  IMN  4505      -0.789  40.269 227.760  1.00 20.00     0.006 A 
HETATM    8  C8  IMN  4505      -1.523  40.721 226.551  1.00 20.00     0.028 A 
HETATM    9  C9  IMN  4505      -3.585  40.324 225.518  1.00 20.00     0.263 C 
HETATM   10  C16 IMN  4505      -1.178  41.859 225.629  1.00 20.00     0.070 C 
HETATM   11  N   IMN  4505      -2.601  39.917 226.411  1.00 20.00    -0.281 N 
HETATM   12  O1  IMN  4505      -3.707  41.519 225.374  1.00 20.00    -0.267 OA
ENDROOT
BRANCH   9  13
HETATM   13  C10 IMN  4505      -4.687  39.582 224.803  1.00 20.00     0.033 A 
HETATM   14  C15 IMN  4505      -6.063  39.637 225.018  1.00 20.00     0.018 A 
HETATM   15  C14 IMN  4505      -6.916  38.867 224.226  1.00 20.00     0.025 A 
HETATM   16  C13 IMN  4505      -6.411  38.053 223.223  1.00 20.00     0.034 A 
HETATM   17  C12 IMN  4505      -5.046  37.999 223.003  1.00 20.00     0.025 A 
HETATM   18 CL   IMN  4505      -7.511  37.068 222.206  1.00 20.00    -0.084 Cl
HETATM   19  C11 IMN  4505      -4.198  38.759 223.790  1.00 20.00     0.018 A 
ENDBRANCH   9  13
BRANCH   7  20
HETATM   20  C17 IMN  4505       0.465  40.727 228.487  1.00 20.00     0.098 C 
BRANCH  20  21
HETATM   21  C18 IMN  4505       0.790  42.161 228.909  1.00 20.00     0.199 C 
HETATM   22  O2  IMN  4505       0.479  42.718 229.954  1.00 20.00    -0.644 OA
HETATM   23  O3  IMN  4505       1.459  42.893 228.015  1.00 20.00    -0.644 OA
ENDBRANCH  20  21
ENDBRANCH   7  20
BRANCH   4  24
HETATM   24  O   IMN  4505      -2.125  36.448 230.696  1.00 20.00    -0.356 OA
HETATM   25  C6  IMN  4505      -3.120  36.147 231.676  1.00 20.00     0.210 C 
ENDBRANCH   4  24
TORSDOF 4
ENDMDL
MODEL 9
REMARK VINA RESULT:      -6.3      8.836     12.555
REMARK  4 active torsions:
REMARK  status: ('A' for Active; 'I' for Inactive)
REMARK    1  A    between atoms: C3_4  and  O_21 
REMARK    2  A    between atoms: C17_18  and  C7_8 
REMARK    3  A    between atoms: C10_11  and  C9_10 
REMARK       I    between atoms: C9_10  and  N_20 
REMARK    4  A    between atoms: C17_18  and  C18_19 
ROOT
HETATM    1  C   IMN  4505      -2.505  39.777 226.874  1.00 20.00     0.054 A 
HETATM    2  C1  IMN  4505      -1.664  39.380 228.036  1.00 20.00     0.006 A 
HETATM    3  C2  IMN  4505      -0.639  40.206 228.462  1.00 20.00     0.051 A 
HETATM    4  C3  IMN  4505      -0.367  41.404 227.818  1.00 20.00     0.069 A 
HETATM    5  C4  IMN  4505      -1.142  41.791 226.731  1.00 20.00     0.039 A 
HETATM    6  C5  IMN  4505      -2.195  40.994 226.263  1.00 20.00     0.034 A 
HETATM    7  C7  IMN  4505      -2.151  38.065 228.536  1.00 20.00     0.006 A 
HETATM    8  C8  IMN  4505      -3.284  37.744 227.632  1.00 20.00     0.028 A 
HETATM    9  C9  IMN  4505      -4.196  38.548 225.633  1.00 20.00     0.263 C 
HETATM   10  C16 IMN  4505      -4.167  36.525 227.650  1.00 20.00     0.070 C 
HETATM   11  N   IMN  4505      -3.393  38.760 226.746  1.00 20.00    -0.281 N 
HETATM   12  O1  IMN  4505      -4.271  37.405 225.243  1.00 20.00    -0.267 OA
ENDROOT
BRANCH   9  13
HETATM   13  C10 IMN  4505      -4.874  39.488 224.666  1.00 20.00     0.033 A 
HETATM   14  C15 IMN  4505      -4.479  39.858 223.381  1.00 20.00     0.018 A 
HETATM   15  C14 IMN  4505      -5.268  40.744 222.646  1.00 20.00     0.025 A 
HETATM   16  C13 IMN  4505      -6.443  41.257 223.177  1.00 20.00     0.034 A 
HETATM   17  C12 IMN  4505      -6.839  40.888 224.451  1.00 20.00     0.025 A 
HETATM   18 CL   IMN  4505      -7.453  42.393 222.228  1.00 20.00    -0.084 Cl
HETATM   19  C11 IMN  4505      -6.057  40.013 225.183  1.00 20.00     0.018 A 
ENDBRANCH   9  13
BRANCH   7  20
HETATM   20  C17 IMN  4505      -1.487  37.368 229.713  1.00 20.00     0.098 C 
BRANCH  20  21
HETATM   21  C18 IMN  4505      -2.183  36.893 230.989  1.00 20.00     0.199 C 
HETATM   22  O2  IMN  4505      -3.335  36.494 231.104  1.00 20.00    -0.644 OA
HETATM   23  O3  IMN  4505      -1.456  36.957 232.107  1.00 20.00    -0.644 OA
ENDBRANCH  20  21
ENDBRANCH   7  20
BRANCH   4  24
HETATM   24  O   IMN  4505       0.667  42.188 228.289  1.00 20.00    -0.356 OA
HETATM   25  C6  IMN  4505       1.811  42.551 227.513  1.00 20.00     0.210 C 
ENDBRANCH   4  24
TORSDOF 4
ENDMDL
