MODEL 1
REMARK VINA RESULT:      -7.7      0.000      0.000
REMARK  9 active torsions:
REMARK  status: ('A' for Active; 'I' for Inactive)
REMARK    1  A    between atoms: C3_7  and  O2_1 
REMARK    2  A    between atoms: C25_29  and  O3_3 
REMARK    3  A    between atoms: C1_5  and  O1_32 
REMARK    4  A    between atoms: C6_10  and  C7_11 
REMARK    5  A    between atoms: C17_21  and  C20_24 
REMARK    6  A    between atoms: C20_24  and  C22_26 
REMARK    7  A    between atoms: C22_26  and  C23_27 
REMARK    8  A    between atoms: C23_27  and  C24_28 
REMARK    9  A    between atoms: C24_28  and  C25_29 
ROOT
HETATM    1  C7  VDX  7622       0.711  35.182 230.754  1.00 20.00     0.004 C 
HETATM    2  C8  VDX  7622       0.237  34.362 231.701  1.00 20.00    -0.075 C 
HETATM    3  C9  VDX  7622       0.543  32.874 231.767  1.00 20.00     0.034 C 
HETATM    4  C11 VDX  7622       1.272  32.607 233.103  1.00 20.00     0.005 C 
HETATM    5  C12 VDX  7622       0.494  33.207 234.306  1.00 20.00     0.010 C 
HETATM    6  C13 VDX  7622       0.159  34.718 234.169  1.00 20.00    -0.033 C 
HETATM    7  C14 VDX  7622      -0.638  34.831 232.812  1.00 20.00     0.023 C 
HETATM    8  C15 VDX  7622      -1.244  36.223 232.792  1.00 20.00     0.010 C 
HETATM    9  C16 VDX  7622      -1.526  36.423 234.301  1.00 20.00     0.006 C 
HETATM   10  C17 VDX  7622      -0.923  35.254 235.132  1.00 20.00    -0.002 C 
HETATM   11  C18 VDX  7622       1.441  35.607 234.162  1.00 20.00     0.016 C 
ENDROOT
BRANCH   1  12
HETATM   12  C6  VDX  7622       1.624  34.892 229.634  1.00 20.00     0.008 C 
HETATM   13  C5  VDX  7622       1.321  34.626 228.344  1.00 20.00    -0.048 C 
HETATM   14  C10 VDX  7622      -0.012  34.724 227.714  1.00 20.00    -0.033 C 
HETATM   15  C4  VDX  7622       2.442  34.263 227.411  1.00 20.00     0.071 C 
HETATM   16  C1  VDX  7622      -0.287  33.624 226.709  1.00 20.00     0.153 C 
HETATM   17  C19 VDX  7622      -0.846  35.796 227.915  1.00 20.00     0.022 C 
HETATM   18  C2  VDX  7622       0.830  33.382 225.670  1.00 20.00     0.068 C 
HETATM   19  C3  VDX  7622       2.172  33.125 226.419  1.00 20.00     0.125 C 
BRANCH  16  20
HETATM   20  O1  VDX  7622      -1.548  33.805 226.108  1.00 20.00    -0.391 OA
ATOM     21  H1  VDX  7622      -1.759  33.111 225.494  1.00  0.00     0.210 HD
ENDBRANCH  16  20
BRANCH  19  22
HETATM   22  O2  VDX  7622       2.050  31.913 227.135  1.00 20.00    -0.395 OA
ATOM     23  H2  VDX  7622       1.895  32.123 228.048  1.00  0.00     0.210 HD
ENDBRANCH  19  22
ENDBRANCH   1  12
BRANCH  10  24
HETATM   24  C20 VDX  7622      -0.454  35.768 236.517  1.00 20.00    -0.014 C 
HETATM   25  C21 VDX  7622       0.621  34.780 237.093  1.00 20.00     0.010 C 
BRANCH  24  26
HETATM   26  C22 VDX  7622      -0.079  37.218 236.577  1.00 20.00     0.005 C 
BRANCH  26  27
HETATM   27  C23 VDX  7622       1.239  37.439 237.441  1.00 20.00     0.003 C 
BRANCH  27  28
HETATM   28  C24 VDX  7622       2.581  37.744 236.811  1.00 20.00     0.037 C 
BRANCH  28  29
HETATM   29  C25 VDX  7622       3.832  37.108 237.484  1.00 20.00     0.051 C 
HETATM   30  C27 VDX  7622       4.189  35.780 236.808  1.00 20.00     0.045 C 
HETATM   31  C26 VDX  7622       3.624  36.896 238.956  1.00 20.00     0.045 C 
BRANCH  29  32
HETATM   32  O3  VDX  7622       5.001  37.869 237.277  1.00 20.00    -0.391 OA
ATOM     33  H3  VDX  7622       5.704  37.624 237.867  1.00  0.00     0.210 HD
ENDBRANCH  29  32
ENDBRANCH  28  29
ENDBRANCH  27  28
ENDBRANCH  26  27
ENDBRANCH  24  26
ENDBRANCH  10  24
TORSDOF 9
ENDMDL
MODEL 2
REMARK VINA RESULT:      -7.6      1.485      2.382
REMARK  9 active torsions:
REMARK  status: ('A' for Active; 'I' for Inactive)
REMARK    1  A    between atoms: C3_7  and  O2_1 
REMARK    2  A    between atoms: C25_29  and  O3_3 
REMARK    3  A    between atoms: C1_5  and  O1_32 
REMARK    4  A    between atoms: C6_10  and  C7_11 
REMARK    5  A    between atoms: C17_21  and  C20_24 
REMARK    6  A    between atoms: C20_24  and  C22_26 
REMARK    7  A    between atoms: C22_26  and  C23_27 
REMARK    8  A    between atoms: C23_27  and  C24_28 
REMARK    9  A    between atoms: C24_28  and  C25_29 
ROOT
HETATM    1  C7  VDX  7622      -0.704  33.224 232.480  1.00 20.00     0.004 C 
HETATM    2  C8  VDX  7622      -0.227  33.237 233.731  1.00 20.00    -0.075 C 
HETATM    3  C9  VDX  7622       0.914  32.357 234.214  1.00 20.00     0.034 C 
HETATM    4  C11 VDX  7622       2.056  33.287 234.679  1.00 20.00     0.005 C 
HETATM    5  C12 VDX  7622       1.545  34.364 235.674  1.00 20.00     0.010 C 
HETATM    6  C13 VDX  7622       0.344  35.203 235.157  1.00 20.00    -0.033 C 
HETATM    7  C14 VDX  7622      -0.762  34.139 234.791  1.00 20.00     0.023 C 
HETATM    8  C15 VDX  7622      -2.045  34.920 234.574  1.00 20.00     0.010 C 
HETATM    9  C16 VDX  7622      -1.854  36.057 235.607  1.00 20.00     0.006 C 
HETATM   10  C17 VDX  7622      -0.430  35.998 236.231  1.00 20.00    -0.002 C 
HETATM   11  C18 VDX  7622       0.728  36.084 233.928  1.00 20.00     0.016 C 
ENDROOT
BRANCH   1  12
HETATM   12  C6  VDX  7622      -0.254  32.445 231.313  1.00 20.00     0.008 C 
HETATM   13  C5  VDX  7622       0.311  32.889 230.168  1.00 20.00    -0.048 C 
HETATM   14  C10 VDX  7622       0.760  34.267 229.883  1.00 20.00    -0.033 C 
HETATM   15  C4  VDX  7622       0.592  31.889 229.081  1.00 20.00     0.071 C 
HETATM   16  C1  VDX  7622       0.487  34.709 228.460  1.00 20.00     0.153 C 
HETATM   17  C19 VDX  7622       1.488  35.006 230.783  1.00 20.00     0.022 C 
HETATM   18  C2  VDX  7622       0.929  33.716 227.363  1.00 20.00     0.068 C 
HETATM   19  C3  VDX  7622       0.281  32.328 227.644  1.00 20.00     0.125 C 
BRANCH  16  20
HETATM   20  O1  VDX  7622       0.985  36.008 228.240  1.00 20.00    -0.391 OA
ATOM     21  H1  VDX  7622       1.840  36.003 227.824  1.00  0.00     0.210 HD
ENDBRANCH  16  20
BRANCH  19  22
HETATM   22  O2  VDX  7622      -1.118  32.457 227.498  1.00 20.00    -0.395 OA
ATOM     23  H2  VDX  7622      -1.434  31.713 226.999  1.00  0.00     0.210 HD
ENDBRANCH  19  22
ENDBRANCH   1  12
BRANCH  10  24
HETATM   24  C20 VDX  7622       0.070  37.428 236.559  1.00 20.00    -0.014 C 
HETATM   25  C21 VDX  7622      -1.168  38.349 236.849  1.00 20.00     0.010 C 
BRANCH  24  26
HETATM   26  C22 VDX  7622       1.173  37.513 237.570  1.00 20.00     0.005 C 
BRANCH  26  27
HETATM   27  C23 VDX  7622       2.602  37.513 236.868  1.00 20.00     0.003 C 
BRANCH  27  28
HETATM   28  C24 VDX  7622       3.875  37.835 237.619  1.00 20.00     0.037 C 
BRANCH  28  29
HETATM   29  C25 VDX  7622       4.424  36.733 238.572  1.00 20.00     0.051 C 
HETATM   30  C27 VDX  7622       4.084  35.339 238.034  1.00 20.00     0.045 C 
HETATM   31  C26 VDX  7622       3.892  36.889 239.967  1.00 20.00     0.045 C 
BRANCH  29  32
HETATM   32  O3  VDX  7622       5.834  36.702 238.604  1.00 20.00    -0.391 OA
ATOM     33  H3  VDX  7622       6.225  37.304 237.982  1.00  0.00     0.210 HD
ENDBRANCH  29  32
ENDBRANCH  28  29
ENDBRANCH  27  28
ENDBRANCH  26  27
ENDBRANCH  24  26
ENDBRANCH  10  24
TORSDOF 9
ENDMDL
MODEL 3
REMARK VINA RESULT:      -7.5      2.717      5.077
REMARK  9 active torsions:
REMARK  status: ('A' for Active; 'I' for Inactive)
REMARK    1  A    between atoms: C3_7  and  O2_1 
REMARK    2  A    between atoms: C25_29  and  O3_3 
REMARK    3  A    between atoms: C1_5  and  O1_32 
REMARK    4  A    between atoms: C6_10  and  C7_11 
REMARK    5  A    between atoms: C17_21  and  C20_24 
REMARK    6  A    between atoms: C20_24  and  C22_26 
REMARK    7  A    between atoms: C22_26  and  C23_27 
REMARK    8  A    between atoms: C23_27  and  C24_28 
REMARK    9  A    between atoms: C24_28  and  C25_29 
ROOT
HETATM    1  C7  VDX  7622      -1.107  36.690 234.603  1.00 20.00     0.004 C 
HETATM    2  C8  VDX  7622      -0.865  35.979 235.711  1.00 20.00    -0.075 C 
HETATM    3  C9  VDX  7622      -1.572  34.678 236.058  1.00 20.00     0.034 C 
HETATM    4  C11 VDX  7622      -0.498  33.571 236.139  1.00 20.00     0.005 C 
HETATM    5  C12 VDX  7622       0.678  33.985 237.065  1.00 20.00     0.010 C 
HETATM    6  C13 VDX  7622       1.335  35.346 236.703  1.00 20.00    -0.033 C 
HETATM    7  C14 VDX  7622       0.148  36.384 236.727  1.00 20.00     0.023 C 
HETATM    8  C15 VDX  7622       0.788  37.760 236.682  1.00 20.00     0.010 C 
HETATM    9  C16 VDX  7622       2.082  37.489 237.487  1.00 20.00     0.006 C 
HETATM   10  C17 VDX  7622       2.227  35.971 237.799  1.00 20.00    -0.002 C 
HETATM   11  C18 VDX  7622       2.042  35.307 235.313  1.00 20.00     0.016 C 
ENDROOT
BRANCH   1  12
HETATM   12  C6  VDX  7622      -2.022  36.400 233.484  1.00 20.00     0.008 C 
HETATM   13  C5  VDX  7622      -1.732  35.885 232.269  1.00 20.00    -0.048 C 
HETATM   14  C10 VDX  7622      -0.432  35.335 231.831  1.00 20.00    -0.033 C 
HETATM   15  C4  VDX  7622      -2.843  35.777 231.261  1.00 20.00     0.071 C 
HETATM   16  C1  VDX  7622      -0.088  35.672 230.394  1.00 20.00     0.153 C 
HETATM   17  C19 VDX  7622       0.306  34.478 232.609  1.00 20.00     0.022 C 
HETATM   18  C2  VDX  7622      -1.208  35.405 229.365  1.00 20.00     0.068 C 
HETATM   19  C3  VDX  7622      -2.498  36.153 229.814  1.00 20.00     0.125 C 
BRANCH  16  20
HETATM   20  O1  VDX  7622       1.134  35.077 230.025  1.00 20.00    -0.391 OA
ATOM     21  H1  VDX  7622       1.595  35.578 229.362  1.00  0.00     0.210 HD
ENDBRANCH  16  20
BRANCH  19  22
HETATM   22  O2  VDX  7622      -2.247  37.542 229.750  1.00 20.00    -0.395 OA
ATOM     23  H2  VDX  7622      -1.306  37.671 229.727  1.00  0.00     0.210 HD
ENDBRANCH  19  22
ENDBRANCH   1  12
BRANCH  10  24
HETATM   24  C20 VDX  7622       3.724  35.569 237.816  1.00 20.00    -0.014 C 
HETATM   25  C21 VDX  7622       4.603  36.869 237.845  1.00 20.00     0.010 C 
BRANCH  24  26
HETATM   26  C22 VDX  7622       4.103  34.525 238.822  1.00 20.00     0.005 C 
BRANCH  26  27
HETATM   27  C23 VDX  7622       4.041  33.065 238.192  1.00 20.00     0.003 C 
BRANCH  27  28
HETATM   28  C24 VDX  7622       4.170  32.816 236.705  1.00 20.00     0.037 C 
BRANCH  28  29
HETATM   29  C25 VDX  7622       3.580  31.482 236.163  1.00 20.00     0.051 C 
HETATM   30  C27 VDX  7622       4.696  30.460 235.921  1.00 20.00     0.045 C 
HETATM   31  C26 VDX  7622       2.794  31.693 234.901  1.00 20.00     0.045 C 
BRANCH  29  32
HETATM   32  O3  VDX  7622       2.776  30.821 237.116  1.00 20.00    -0.391 OA
ATOM     33  H3  VDX  7622       1.849  30.970 236.975  1.00  0.00     0.210 HD
ENDBRANCH  29  32
ENDBRANCH  28  29
ENDBRANCH  27  28
ENDBRANCH  26  27
ENDBRANCH  24  26
ENDBRANCH  10  24
TORSDOF 9
ENDMDL
MODEL 4
REMARK VINA RESULT:      -7.3      1.803      2.609
REMARK  9 active torsions:
REMARK  status: ('A' for Active; 'I' for Inactive)
REMARK    1  A    between atoms: C3_7  and  O2_1 
REMARK    2  A    between atoms: C25_29  and  O3_3 
REMARK    3  A    between atoms: C1_5  and  O1_32 
REMARK    4  A    between atoms: C6_10  and  C7_11 
REMARK    5  A    between atoms: C17_21  and  C20_24 
REMARK    6  A    between atoms: C20_24  and  C22_26 
REMARK    7  A    between atoms: C22_26  and  C23_27 
REMARK    8  A    between atoms: C23_27  and  C24_28 
REMARK    9  A    between atoms: C24_28  and  C25_29 
ROOT
HETATM    1  C7  VDX  7622      -0.392  32.357 230.398  1.00 20.00     0.004 C 
HETATM    2  C8  VDX  7622      -0.193  31.871 231.630  1.00 20.00    -0.075 C 
HETATM    3  C9  VDX  7622       0.950  30.939 232.002  1.00 20.00     0.034 C 
HETATM    4  C11 VDX  7622       1.806  31.655 233.069  1.00 20.00     0.005 C 
HETATM    5  C12 VDX  7622       0.934  32.180 234.242  1.00 20.00     0.010 C 
HETATM    6  C13 VDX  7622      -0.252  33.084 233.809  1.00 20.00    -0.033 C 
HETATM    7  C14 VDX  7622      -1.073  32.209 232.785  1.00 20.00     0.023 C 
HETATM    8  C15 VDX  7622      -2.392  32.931 232.574  1.00 20.00     0.010 C 
HETATM    9  C16 VDX  7622      -2.604  33.537 233.982  1.00 20.00     0.006 C 
HETATM   10  C17 VDX  7622      -1.350  33.306 234.873  1.00 20.00    -0.002 C 
HETATM   11  C18 VDX  7622       0.231  34.423 233.168  1.00 20.00     0.016 C 
ENDROOT
BRANCH   1  12
HETATM   12  C6  VDX  7622       0.409  32.169 229.176  1.00 20.00     0.008 C 
HETATM   13  C5  VDX  7622       1.028  33.103 228.421  1.00 20.00    -0.048 C 
HETATM   14  C10 VDX  7622       1.180  34.538 228.741  1.00 20.00    -0.033 C 
HETATM   15  C4  VDX  7622       1.707  32.658 227.155  1.00 20.00     0.071 C 
HETATM   16  C1  VDX  7622       1.041  35.444 227.535  1.00 20.00     0.153 C 
HETATM   17  C19 VDX  7622       1.561  34.979 229.984  1.00 20.00     0.022 C 
HETATM   18  C2  VDX  7622       1.873  35.034 226.300  1.00 20.00     0.068 C 
HETATM   19  C3  VDX  7622       1.534  33.561 225.926  1.00 20.00     0.125 C 
BRANCH  16  20
HETATM   20  O1  VDX  7622       1.248  36.789 227.899  1.00 20.00    -0.391 OA
ATOM     21  H1  VDX  7622       1.549  36.879 228.796  1.00  0.00     0.210 HD
ENDBRANCH  16  20
BRANCH  19  22
HETATM   22  O2  VDX  7622       0.185  33.512 225.509  1.00 20.00    -0.395 OA
ATOM     23  H2  VDX  7622      -0.131  34.404 225.427  1.00  0.00     0.210 HD
ENDBRANCH  19  22
ENDBRANCH   1  12
BRANCH  10  24
HETATM   24  C20 VDX  7622      -1.164  34.493 235.854  1.00 20.00    -0.014 C 
HETATM   25  C21 VDX  7622      -2.512  35.292 235.950  1.00 20.00     0.010 C 
BRANCH  24  26
HETATM   26  C22 VDX  7622      -0.532  34.154 237.169  1.00 20.00     0.005 C 
BRANCH  26  27
HETATM   27  C23 VDX  7622       0.950  34.727 237.264  1.00 20.00     0.003 C 
BRANCH  27  28
HETATM   28  C24 VDX  7622       1.580  35.536 236.151  1.00 20.00     0.037 C 
BRANCH  28  29
HETATM   29  C25 VDX  7622       1.716  37.068 236.389  1.00 20.00     0.051 C 
HETATM   30  C27 VDX  7622       2.976  37.375 237.205  1.00 20.00     0.045 C 
HETATM   31  C26 VDX  7622       0.507  37.633 237.078  1.00 20.00     0.045 C 
BRANCH  29  32
HETATM   32  O3  VDX  7622       1.956  37.780 235.195  1.00 20.00    -0.391 OA
ATOM     33  H3  VDX  7622       2.546  37.319 234.610  1.00  0.00     0.210 HD
ENDBRANCH  29  32
ENDBRANCH  28  29
ENDBRANCH  27  28
ENDBRANCH  26  27
ENDBRANCH  24  26
ENDBRANCH  10  24
TORSDOF 9
ENDMDL
MODEL 5
REMARK VINA RESULT:      -7.1      1.769      3.242
REMARK  9 active torsions:
REMARK  status: ('A' for Active; 'I' for Inactive)
REMARK    1  A    between atoms: C3_7  and  O2_1 
REMARK    2  A    between atoms: C25_29  and  O3_3 
REMARK    3  A    between atoms: C1_5  and  O1_32 
REMARK    4  A    between atoms: C6_10  and  C7_11 
REMARK    5  A    between atoms: C17_21  and  C20_24 
REMARK    6  A    between atoms: C20_24  and  C22_26 
REMARK    7  A    between atoms: C22_26  and  C23_27 
REMARK    8  A    between atoms: C23_27  and  C24_28 
REMARK    9  A    between atoms: C24_28  and  C25_29 
ROOT
HETATM    1  C7  VDX  7622       0.403  32.693 230.198  1.00 20.00     0.004 C 
HETATM    2  C8  VDX  7622       0.858  33.437 231.214  1.00 20.00    -0.075 C 
HETATM    3  C9  VDX  7622       1.191  34.917 231.101  1.00 20.00     0.034 C 
HETATM    4  C11 VDX  7622       0.268  35.678 232.077  1.00 20.00     0.005 C 
HETATM    5  C12 VDX  7622       0.318  35.066 233.503  1.00 20.00     0.010 C 
HETATM    6  C13 VDX  7622       0.022  33.542 233.562  1.00 20.00    -0.033 C 
HETATM    7  C14 VDX  7622       1.074  32.890 232.583  1.00 20.00     0.023 C 
HETATM    8  C15 VDX  7622       1.023  31.395 232.842  1.00 20.00     0.010 C 
HETATM    9  C16 VDX  7622       0.721  31.388 234.360  1.00 20.00     0.006 C 
HETATM   10  C17 VDX  7622       0.433  32.829 234.869  1.00 20.00    -0.002 C 
HETATM   11  C18 VDX  7622      -1.443  33.209 233.140  1.00 20.00     0.016 C 
ENDROOT
BRANCH   1  12
HETATM   12  C6  VDX  7622       0.083  33.090 228.815  1.00 20.00     0.008 C 
HETATM   13  C5  VDX  7622       0.631  32.648 227.662  1.00 20.00    -0.048 C 
HETATM   14  C10 VDX  7622       1.584  31.529 227.511  1.00 20.00    -0.033 C 
HETATM   15  C4  VDX  7622       0.192  33.290 226.375  1.00 20.00     0.071 C 
HETATM   16  C1  VDX  7622       2.658  31.786 226.473  1.00 20.00     0.153 C 
HETATM   17  C19 VDX  7622       1.411  30.322 228.142  1.00 20.00     0.022 C 
HETATM   18  C2  VDX  7622       2.150  32.304 225.110  1.00 20.00     0.068 C 
HETATM   19  C3  VDX  7622       1.288  33.581 225.341  1.00 20.00     0.125 C 
BRANCH  16  20
HETATM   20  O1  VDX  7622       3.499  30.664 226.341  1.00 20.00    -0.391 OA
ATOM     21  H1  VDX  7622       4.328  30.777 226.793  1.00  0.00     0.210 HD
ENDBRANCH  16  20
BRANCH  19  22
HETATM   22  O2  VDX  7622       2.132  34.596 225.843  1.00 20.00    -0.395 OA
ATOM     23  H2  VDX  7622       3.019  34.414 225.554  1.00  0.00     0.210 HD
ENDBRANCH  19  22
ENDBRANCH   1  12
BRANCH  10  24
HETATM   24  C20 VDX  7622      -0.606  32.793 236.019  1.00 20.00    -0.014 C 
HETATM   25  C21 VDX  7622      -0.741  31.318 236.540  1.00 20.00     0.010 C 
BRANCH  24  26
HETATM   26  C22 VDX  7622      -0.427  33.829 237.087  1.00 20.00     0.005 C 
BRANCH  26  27
HETATM   27  C23 VDX  7622       1.014  34.499 237.007  1.00 20.00     0.003 C 
BRANCH  27  28
HETATM   28  C24 VDX  7622       1.210  35.999 236.965  1.00 20.00     0.037 C 
BRANCH  28  29
HETATM   29  C25 VDX  7622       2.550  36.515 236.365  1.00 20.00     0.051 C 
HETATM   30  C27 VDX  7622       3.414  35.340 235.892  1.00 20.00     0.045 C 
HETATM   31  C26 VDX  7622       3.315  37.351 237.350  1.00 20.00     0.045 C 
BRANCH  29  32
HETATM   32  O3  VDX  7622       2.362  37.243 235.171  1.00 20.00    -0.391 OA
ATOM     33  H3  VDX  7622       2.027  36.703 234.466  1.00  0.00     0.210 HD
ENDBRANCH  29  32
ENDBRANCH  28  29
ENDBRANCH  27  28
ENDBRANCH  26  27
ENDBRANCH  24  26
ENDBRANCH  10  24
TORSDOF 9
ENDMDL
MODEL 6
REMARK VINA RESULT:      -6.9      2.153      8.658
REMARK  9 active torsions:
REMARK  status: ('A' for Active; 'I' for Inactive)
REMARK    1  A    between atoms: C3_7  and  O2_1 
REMARK    2  A    between atoms: C25_29  and  O3_3 
REMARK    3  A    between atoms: C1_5  and  O1_32 
REMARK    4  A    between atoms: C6_10  and  C7_11 
REMARK    5  A    between atoms: C17_21  and  C20_24 
REMARK    6  A    between atoms: C20_24  and  C22_26 
REMARK    7  A    between atoms: C22_26  and  C23_27 
REMARK    8  A    between atoms: C23_27  and  C24_28 
REMARK    9  A    between atoms: C24_28  and  C25_29 
ROOT
HETATM    1  C7  VDX  7622      -0.230  33.609 234.485  1.00 20.00     0.004 C 
HETATM    2  C8  VDX  7622      -0.358  34.117 233.253  1.00 20.00    -0.075 C 
HETATM    3  C9  VDX  7622       0.466  35.281 232.724  1.00 20.00     0.034 C 
HETATM    4  C11 VDX  7622       1.266  34.770 231.506  1.00 20.00     0.005 C 
HETATM    5  C12 VDX  7622       0.347  34.051 230.481  1.00 20.00     0.010 C 
HETATM    6  C13 VDX  7622      -0.514  32.905 231.079  1.00 20.00    -0.033 C 
HETATM    7  C14 VDX  7622      -1.323  33.579 232.253  1.00 20.00     0.023 C 
HETATM    8  C15 VDX  7622      -2.391  32.580 232.659  1.00 20.00     0.010 C 
HETATM    9  C16 VDX  7622      -2.698  31.930 231.288  1.00 20.00     0.006 C 
HETATM   10  C17 VDX  7622      -1.698  32.432 230.207  1.00 20.00    -0.002 C 
HETATM   11  C18 VDX  7622       0.360  31.716 231.587  1.00 20.00     0.016 C 
ENDROOT
BRANCH   1  12
HETATM   12  C6  VDX  7622       0.705  33.983 235.561  1.00 20.00     0.008 C 
HETATM   13  C5  VDX  7622       0.736  35.116 236.297  1.00 20.00    -0.048 C 
HETATM   14  C10 VDX  7622      -0.277  36.191 236.302  1.00 20.00    -0.033 C 
HETATM   15  C4  VDX  7622       1.863  35.296 237.276  1.00 20.00     0.071 C 
HETATM   16  C1  VDX  7622       0.318  37.580 236.412  1.00 20.00     0.153 C 
HETATM   17  C19 VDX  7622      -1.625  35.935 236.358  1.00 20.00     0.022 C 
HETATM   18  C2  VDX  7622       1.366  37.765 237.531  1.00 20.00     0.068 C 
HETATM   19  C3  VDX  7622       2.486  36.696 237.358  1.00 20.00     0.125 C 
BRANCH  16  20
HETATM   20  O1  VDX  7622      -0.700  38.553 236.464  1.00 20.00    -0.391 OA
ATOM     21  H1  VDX  7622      -1.447  38.268 236.978  1.00  0.00     0.210 HD
ENDBRANCH  16  20
BRANCH  19  22
HETATM   22  O2  VDX  7622       3.168  36.964 236.150  1.00 20.00    -0.395 OA
ATOM     23  H2  VDX  7622       4.079  37.138 236.357  1.00  0.00     0.210 HD
ENDBRANCH  19  22
ENDBRANCH   1  12
BRANCH  10  24
HETATM   24  C20 VDX  7622      -1.421  31.311 229.173  1.00 20.00    -0.014 C 
HETATM   25  C21 VDX  7622      -2.332  30.075 229.502  1.00 20.00     0.010 C 
BRANCH  24  26
HETATM   26  C22 VDX  7622      -1.426  31.738 227.737  1.00 20.00     0.005 C 
BRANCH  26  27
HETATM   27  C23 VDX  7622       0.046  32.054 227.222  1.00 20.00     0.003 C 
BRANCH  27  28
HETATM   28  C24 VDX  7622       0.427  33.388 226.619  1.00 20.00     0.037 C 
BRANCH  28  29
HETATM   29  C25 VDX  7622       1.948  33.689 226.485  1.00 20.00     0.051 C 
HETATM   30  C27 VDX  7622       2.767  32.406 226.666  1.00 20.00     0.045 C 
HETATM   31  C26 VDX  7622       2.398  34.730 227.470  1.00 20.00     0.045 C 
BRANCH  29  32
HETATM   32  O3  VDX  7622       2.305  34.087 225.180  1.00 20.00    -0.391 OA
ATOM     33  H3  VDX  7622       1.741  34.772 224.841  1.00  0.00     0.210 HD
ENDBRANCH  29  32
ENDBRANCH  28  29
ENDBRANCH  27  28
ENDBRANCH  26  27
ENDBRANCH  24  26
ENDBRANCH  10  24
TORSDOF 9
ENDMDL
MODEL 7
REMARK VINA RESULT:      -6.9      4.188      6.282
REMARK  9 active torsions:
REMARK  status: ('A' for Active; 'I' for Inactive)
REMARK    1  A    between atoms: C3_7  and  O2_1 
REMARK    2  A    between atoms: C25_29  and  O3_3 
REMARK    3  A    between atoms: C1_5  and  O1_32 
REMARK    4  A    between atoms: C6_10  and  C7_11 
REMARK    5  A    between atoms: C17_21  and  C20_24 
REMARK    6  A    between atoms: C20_24  and  C22_26 
REMARK    7  A    between atoms: C22_26  and  C23_27 
REMARK    8  A    between atoms: C23_27  and  C24_28 
REMARK    9  A    between atoms: C24_28  and  C25_29 
ROOT
HETATM    1  C7  VDX  7622       0.466  37.143 227.727  1.00 20.00     0.004 C 
HETATM    2  C8  VDX  7622       0.580  35.904 228.222  1.00 20.00    -0.075 C 
HETATM    3  C9  VDX  7622       1.844  35.362 228.872  1.00 20.00     0.034 C 
HETATM    4  C11 VDX  7622       1.497  34.995 230.332  1.00 20.00     0.005 C 
HETATM    5  C12 VDX  7622       0.237  34.089 230.408  1.00 20.00     0.010 C 
HETATM    6  C13 VDX  7622      -1.013  34.661 229.685  1.00 20.00    -0.033 C 
HETATM    7  C14 VDX  7622      -0.538  34.919 228.203  1.00 20.00     0.023 C 
HETATM    8  C15 VDX  7622      -1.796  35.185 227.396  1.00 20.00     0.010 C 
HETATM    9  C16 VDX  7622      -2.795  34.256 228.128  1.00 20.00     0.006 C 
HETATM   10  C17 VDX  7622      -2.146  33.649 229.404  1.00 20.00    -0.002 C 
HETATM   11  C18 VDX  7622      -1.537  35.966 230.360  1.00 20.00     0.016 C 
ENDROOT
BRANCH   1  12
HETATM   12  C6  VDX  7622       1.446  38.244 227.721  1.00 20.00     0.008 C 
HETATM   13  C5  VDX  7622       1.219  39.575 227.658  1.00 20.00    -0.048 C 
HETATM   14  C10 VDX  7622      -0.092  40.251 227.743  1.00 20.00    -0.033 C 
HETATM   15  C4  VDX  7622       2.406  40.493 227.568  1.00 20.00     0.071 C 
HETATM   16  C1  VDX  7622      -0.218  41.442 226.815  1.00 20.00     0.153 C 
HETATM   17  C19 VDX  7622      -1.035  39.917 228.684  1.00 20.00     0.022 C 
HETATM   18  C2  VDX  7622       0.956  42.444 226.861  1.00 20.00     0.068 C 
HETATM   19  C3  VDX  7622       2.287  41.678 226.600  1.00 20.00     0.125 C 
BRANCH  16  20
HETATM   20  O1  VDX  7622      -1.467  42.071 226.983  1.00 20.00    -0.391 OA
ATOM     21  H1  VDX  7622      -2.192  41.458 226.928  1.00  0.00     0.210 HD
ENDBRANCH  16  20
BRANCH  19  22
HETATM   22  O2  VDX  7622       2.259  41.187 225.276  1.00 20.00    -0.395 OA
ATOM     23  H2  VDX  7622       2.281  40.238 225.312  1.00  0.00     0.210 HD
ENDBRANCH  19  22
ENDBRANCH   1  12
BRANCH  10  24
HETATM   24  C20 VDX  7622      -3.217  33.452 230.508  1.00 20.00    -0.014 C 
HETATM   25  C21 VDX  7622      -4.529  32.891 229.853  1.00 20.00     0.010 C 
BRANCH  24  26
HETATM   26  C22 VDX  7622      -2.758  32.722 231.733  1.00 20.00     0.005 C 
BRANCH  26  27
HETATM   27  C23 VDX  7622      -2.611  33.710 232.973  1.00 20.00     0.003 C 
BRANCH  27  28
HETATM   28  C24 VDX  7622      -1.304  33.893 233.714  1.00 20.00     0.037 C 
BRANCH  28  29
HETATM   29  C25 VDX  7622      -1.034  35.300 234.321  1.00 20.00     0.051 C 
HETATM   30  C27 VDX  7622       0.213  35.928 233.688  1.00 20.00     0.045 C 
HETATM   31  C26 VDX  7622      -0.878  35.241 235.813  1.00 20.00     0.045 C 
BRANCH  29  32
HETATM   32  O3  VDX  7622      -2.036  36.234 233.986  1.00 20.00    -0.391 OA
ATOM     33  H3  VDX  7622      -2.908  35.859 234.022  1.00  0.00     0.210 HD
ENDBRANCH  29  32
ENDBRANCH  28  29
ENDBRANCH  27  28
ENDBRANCH  26  27
ENDBRANCH  24  26
ENDBRANCH  10  24
TORSDOF 9
ENDMDL
MODEL 8
REMARK VINA RESULT:      -6.9      1.482      1.835
REMARK  9 active torsions:
REMARK  status: ('A' for Active; 'I' for Inactive)
REMARK    1  A    between atoms: C3_7  and  O2_1 
REMARK    2  A    between atoms: C25_29  and  O3_3 
REMARK    3  A    between atoms: C1_5  and  O1_32 
REMARK    4  A    between atoms: C6_10  and  C7_11 
REMARK    5  A    between atoms: C17_21  and  C20_24 
REMARK    6  A    between atoms: C20_24  and  C22_26 
REMARK    7  A    between atoms: C22_26  and  C23_27 
REMARK    8  A    between atoms: C23_27  and  C24_28 
REMARK    9  A    between atoms: C24_28  and  C25_29 
ROOT
HETATM    1  C7  VDX  7622       0.668  35.160 230.213  1.00 20.00     0.004 C 
HETATM    2  C8  VDX  7622       0.165  34.341 231.145  1.00 20.00    -0.075 C 
HETATM    3  C9  VDX  7622       0.406  32.840 231.175  1.00 20.00     0.034 C 
HETATM    4  C11 VDX  7622       1.132  32.510 232.498  1.00 20.00     0.005 C 
HETATM    5  C12 VDX  7622       0.391  33.116 233.721  1.00 20.00     0.010 C 
HETATM    6  C13 VDX  7622       0.122  34.642 233.621  1.00 20.00    -0.033 C 
HETATM    7  C14 VDX  7622      -0.680  34.822 232.275  1.00 20.00     0.023 C 
HETATM    8  C15 VDX  7622      -1.223  36.240 232.292  1.00 20.00     0.010 C 
HETATM    9  C16 VDX  7622      -1.485  36.417 233.807  1.00 20.00     0.006 C 
HETATM   10  C17 VDX  7622      -0.928  35.204 234.606  1.00 20.00    -0.002 C 
HETATM   11  C18 VDX  7622       1.442  35.475 233.624  1.00 20.00     0.016 C 
ENDROOT
BRANCH   1  12
HETATM   12  C6  VDX  7622       1.559  34.856 229.079  1.00 20.00     0.008 C 
HETATM   13  C5  VDX  7622       1.246  34.309 227.884  1.00 20.00    -0.048 C 
HETATM   14  C10 VDX  7622      -0.111  34.031 227.368  1.00 20.00    -0.033 C 
HETATM   15  C4  VDX  7622       2.366  34.009 226.926  1.00 20.00     0.071 C 
HETATM   16  C1  VDX  7622      -0.206  32.736 226.588  1.00 20.00     0.153 C 
HETATM   17  C19 VDX  7622      -1.136  34.940 227.463  1.00 20.00     0.022 C 
HETATM   18  C2  VDX  7622       0.878  32.533 225.507  1.00 20.00     0.068 C 
HETATM   19  C3  VDX  7622       2.282  32.680 226.164  1.00 20.00     0.125 C 
BRANCH  16  20
HETATM   20  O1  VDX  7622      -1.509  32.558 226.081  1.00 20.00    -0.391 OA
ATOM     21  H1  VDX  7622      -1.928  33.383 225.862  1.00  0.00     0.210 HD
ENDBRANCH  16  20
BRANCH  19  22
HETATM   22  O2  VDX  7622       2.453  31.616 227.078  1.00 20.00    -0.395 OA
ATOM     23  H2  VDX  7622       3.149  31.853 227.680  1.00  0.00     0.210 HD
ENDBRANCH  19  22
ENDBRANCH   1  12
BRANCH  10  24
HETATM   24  C20 VDX  7622      -0.426  35.665 235.998  1.00 20.00    -0.014 C 
HETATM   25  C21 VDX  7622      -1.161  36.995 236.393  1.00 20.00     0.010 C 
BRANCH  24  26
HETATM   26  C22 VDX  7622      -0.409  34.610 237.063  1.00 20.00     0.005 C 
BRANCH  26  27
HETATM   27  C23 VDX  7622       1.046  33.988 237.237  1.00 20.00     0.003 C 
BRANCH  27  28
HETATM   28  C24 VDX  7622       2.275  34.844 237.449  1.00 20.00     0.037 C 
BRANCH  28  29
HETATM   29  C25 VDX  7622       3.268  34.384 238.556  1.00 20.00     0.051 C 
HETATM   30  C27 VDX  7622       4.171  35.546 238.985  1.00 20.00     0.045 C 
HETATM   31  C26 VDX  7622       4.105  33.223 238.103  1.00 20.00     0.045 C 
BRANCH  29  32
HETATM   32  O3  VDX  7622       2.616  34.055 239.763  1.00 20.00    -0.391 OA
ATOM     33  H3  VDX  7622       1.671  34.112 239.692  1.00  0.00     0.210 HD
ENDBRANCH  29  32
ENDBRANCH  28  29
ENDBRANCH  27  28
ENDBRANCH  26  27
ENDBRANCH  24  26
ENDBRANCH  10  24
TORSDOF 9
ENDMDL
MODEL 9
REMARK VINA RESULT:      -6.9      3.154      8.543
REMARK  9 active torsions:
REMARK  status: ('A' for Active; 'I' for Inactive)
REMARK    1  A    between atoms: C3_7  and  O2_1 
REMARK    2  A    between atoms: C25_29  and  O3_3 
REMARK    3  A    between atoms: C1_5  and  O1_32 
REMARK    4  A    between atoms: C6_10  and  C7_11 
REMARK    5  A    between atoms: C17_21  and  C20_24 
REMARK    6  A    between atoms: C20_24  and  C22_26 
REMARK    7  A    between atoms: C22_26  and  C23_27 
REMARK    8  A    between atoms: C23_27  and  C24_28 
REMARK    9  A    between atoms: C24_28  and  C25_29 
ROOT
HETATM    1  C7  VDX  7622      -0.535  34.873 235.184  1.00 20.00     0.004 C 
HETATM    2  C8  VDX  7622      -0.137  35.441 234.039  1.00 20.00    -0.075 C 
HETATM    3  C9  VDX  7622       1.319  35.629 233.645  1.00 20.00     0.034 C 
HETATM    4  C11 VDX  7622       1.555  34.836 232.340  1.00 20.00     0.005 C 
HETATM    5  C12 VDX  7622       0.496  35.188 231.260  1.00 20.00     0.010 C 
HETATM    6  C13 VDX  7622      -0.978  35.032 231.726  1.00 20.00    -0.033 C 
HETATM    7  C14 VDX  7622      -1.093  35.941 233.010  1.00 20.00     0.023 C 
HETATM    8  C15 VDX  7622      -2.575  36.057 233.314  1.00 20.00     0.010 C 
HETATM    9  C16 VDX  7622      -3.155  36.032 231.879  1.00 20.00     0.006 C 
HETATM   10  C17 VDX  7622      -2.038  35.725 230.841  1.00 20.00    -0.002 C 
HETATM   11  C18 VDX  7622      -1.342  33.546 232.035  1.00 20.00     0.016 C 
ENDROOT
BRANCH   1  12
HETATM   12  C6  VDX  7622       0.271  34.281 236.267  1.00 20.00     0.008 C 
HETATM   13  C5  VDX  7622       1.255  34.852 236.995  1.00 20.00    -0.048 C 
HETATM   14  C10 VDX  7622       1.649  36.277 236.982  1.00 20.00    -0.033 C 
HETATM   15  C4  VDX  7622       1.996  33.995 237.983  1.00 20.00     0.071 C 
HETATM   16  C1  VDX  7622       3.145  36.490 237.088  1.00 20.00     0.153 C 
HETATM   17  C19 VDX  7622       0.730  37.296 237.026  1.00 20.00     0.022 C 
HETATM   18  C2  VDX  7622       3.849  35.704 238.215  1.00 20.00     0.068 C 
HETATM   19  C3  VDX  7622       3.516  34.190 238.062  1.00 20.00     0.125 C 
BRANCH  16  20
HETATM   20  O1  VDX  7622       3.448  37.866 237.123  1.00 20.00    -0.391 OA
ATOM     21  H1  VDX  7622       3.852  38.126 237.943  1.00  0.00     0.210 HD
ENDBRANCH  16  20
BRANCH  19  22
HETATM   22  O2  VDX  7622       4.098  33.732 236.859  1.00 20.00    -0.395 OA
ATOM     23  H2  VDX  7622       4.528  34.468 236.439  1.00  0.00     0.210 HD
ENDBRANCH  19  22
ENDBRANCH   1  12
BRANCH  10  24
HETATM   24  C20 VDX  7622      -2.618  34.914 229.654  1.00 20.00    -0.014 C 
HETATM   25  C21 VDX  7622      -3.992  34.288 230.086  1.00 20.00     0.010 C 
BRANCH  24  26
HETATM   26  C22 VDX  7622      -2.629  35.618 228.332  1.00 20.00     0.005 C 
BRANCH  26  27
HETATM   27  C23 VDX  7622      -1.939  37.049 228.433  1.00 20.00     0.003 C 
BRANCH  27  28
HETATM   28  C24 VDX  7622      -2.727  38.338 228.347  1.00 20.00     0.037 C 
BRANCH  28  29
HETATM   29  C25 VDX  7622      -1.926  39.628 228.006  1.00 20.00     0.051 C 
HETATM   30  C27 VDX  7622      -2.369  40.193 226.652  1.00 20.00     0.045 C 
HETATM   31  C26 VDX  7622      -0.445  39.377 227.998  1.00 20.00     0.045 C 
BRANCH  29  32
HETATM   32  O3  VDX  7622      -2.220  40.694 228.882  1.00 20.00    -0.391 OA
ATOM     33  H3  VDX  7622      -1.591  40.767 229.589  1.00  0.00     0.210 HD
ENDBRANCH  29  32
ENDBRANCH  28  29
ENDBRANCH  27  28
ENDBRANCH  26  27
ENDBRANCH  24  26
ENDBRANCH  10  24
TORSDOF 9
ENDMDL
