MODEL 1
REMARK VINA RESULT:      -6.4      0.000      0.000
REMARK  6 active torsions:
REMARK  status: ('A' for Active; 'I' for Inactive)
REMARK    1  A    between atoms: C14_2  and  O2_3 
REMARK    2  A    between atoms: C13_4  and  O2_3 
REMARK    3  A    between atoms: C13_4  and  C2_6 
REMARK    4  A    between atoms: C16_14  and  C4_13 
REMARK    5  A    between atoms: C16_14  and  O4_16 
REMARK    6  A    between atoms: C3_18  and  C6_19 
ROOT
HETATM    1  C2  225   386       2.130  35.329 236.856  1.00 20.00     0.073 C 
HETATM    2  C1  225   386       2.251  36.700 237.130  1.00 20.00     0.022 C 
HETATM    3  C12 225   386       3.581  37.418 237.390  1.00 20.00     0.069 C 
HETATM    4  N1  225   386       1.153  37.484 237.111  1.00 20.00    -0.362 N 
ATOM      5  H1  225   386       1.295  38.474 237.312  1.00  0.00     0.165 HD
HETATM    6  C5  225   386      -0.114  37.096 236.853  1.00 20.00     0.022 C 
HETATM    7  C18 225   386      -1.160  38.211 236.735  1.00 20.00     0.069 C 
HETATM    8  C4  225   386      -0.382  35.743 236.599  1.00 20.00     0.073 C 
HETATM    9  C3  225   386       0.826  34.888 236.148  1.00 20.00     0.012 C 
ENDROOT
BRANCH   9  10
HETATM   10  C6  225   386       0.919  34.535 234.644  1.00 20.00    -0.000 A 
HETATM   11  C11 225   386       0.768  33.225 234.149  1.00 20.00     0.067 A 
HETATM   12  C10 225   386       0.888  32.982 232.771  1.00 20.00     0.056 A 
HETATM   13 CL2  225   386       0.451  31.878 235.194  1.00 20.00    -0.082 Cl
HETATM   14 CL1  225   386       0.637  31.430 232.047  1.00 20.00    -0.083 Cl
HETATM   15  C9  225   386       1.168  34.027 231.888  1.00 20.00     0.026 A 
HETATM   16  C8  225   386       1.319  35.333 232.358  1.00 20.00     0.003 A 
HETATM   17  C7  225   386       1.191  35.563 233.727  1.00 20.00     0.014 A 
ENDBRANCH   9  10
BRANCH   1  18
HETATM   18  C13 225   386       3.182  34.269 237.232  1.00 20.00     0.296 C 
HETATM   19  O1  225   386       3.456  34.052 238.415  1.00 20.00    -0.259 OA
BRANCH  18  20
HETATM   20  O2  225   386       3.765  33.546 236.230  1.00 20.00    -0.318 OA
BRANCH  20  21
HETATM   21  C14 225   386       3.929  32.126 236.395  1.00 20.00     0.174 C 
HETATM   22  C15 225   386       4.019  31.441 235.028  1.00 20.00     0.034 C 
ENDBRANCH  20  21
ENDBRANCH  18  20
ENDBRANCH   1  18
BRANCH   8  23
HETATM   23  C16 225   386      -1.717  35.056 236.940  1.00 20.00     0.295 C 
HETATM   24  O3  225   386      -1.773  34.220 237.843  1.00 20.00    -0.259 OA
BRANCH  23  25
HETATM   25  O4  225   386      -2.824  35.357 236.199  1.00 20.00    -0.322 OA
HETATM   26  C17 225   386      -2.813  35.050 234.798  1.00 20.00     0.213 C 
ENDBRANCH  23  25
ENDBRANCH   8  23
TORSDOF 6
ENDMDL
MODEL 2
REMARK VINA RESULT:      -6.2      0.915      1.549
REMARK  6 active torsions:
REMARK  status: ('A' for Active; 'I' for Inactive)
REMARK    1  A    between atoms: C14_2  and  O2_3 
REMARK    2  A    between atoms: C13_4  and  O2_3 
REMARK    3  A    between atoms: C13_4  and  C2_6 
REMARK    4  A    between atoms: C16_14  and  C4_13 
REMARK    5  A    between atoms: C16_14  and  O4_16 
REMARK    6  A    between atoms: C3_18  and  C6_19 
ROOT
HETATM    1  C2  225   386       2.055  35.377 236.938  1.00 20.00     0.073 C 
HETATM    2  C1  225   386       2.170  36.752 237.195  1.00 20.00     0.022 C 
HETATM    3  C12 225   386       3.495  37.472 237.476  1.00 20.00     0.069 C 
HETATM    4  N1  225   386       1.074  37.536 237.141  1.00 20.00    -0.362 N 
ATOM      5  H1  225   386       1.212  38.529 237.332  1.00  0.00     0.165 HD
HETATM    6  C5  225   386      -0.187  37.145 236.859  1.00 20.00     0.022 C 
HETATM    7  C18 225   386      -1.229  38.259 236.702  1.00 20.00     0.069 C 
HETATM    8  C4  225   386      -0.450  35.789 236.617  1.00 20.00     0.073 C 
HETATM    9  C3  225   386       0.767  34.928 236.207  1.00 20.00     0.012 C 
ENDROOT
BRANCH   9  10
HETATM   10  C6  225   386       0.894  34.554 234.709  1.00 20.00    -0.000 A 
HETATM   11  C11 225   386       0.959  33.224 234.250  1.00 20.00     0.067 A 
HETATM   12  C10 225   386       1.097  32.967 232.877  1.00 20.00     0.056 A 
HETATM   13 CL2  225   386       0.894  31.872 235.334  1.00 20.00    -0.082 Cl
HETATM   14 CL1  225   386       1.102  31.376 232.196  1.00 20.00    -0.083 Cl
HETATM   15  C9  225   386       1.181  34.019 231.962  1.00 20.00     0.026 A 
HETATM   16  C8  225   386       1.115  35.344 232.396  1.00 20.00     0.003 A 
HETATM   17  C7  225   386       0.972  35.587 233.762  1.00 20.00     0.014 A 
ENDBRANCH   9  10
BRANCH   1  18
HETATM   18  C13 225   386       3.097  34.322 237.352  1.00 20.00     0.296 C 
HETATM   19  O1  225   386       3.946  33.932 236.548  1.00 20.00    -0.259 OA
BRANCH  18  20
HETATM   20  O2  225   386       3.088  33.869 238.642  1.00 20.00    -0.318 OA
BRANCH  20  21
HETATM   21  C14 225   386       4.337  33.712 239.339  1.00 20.00     0.174 C 
HETATM   22  C15 225   386       4.780  35.050 239.939  1.00 20.00     0.034 C 
ENDBRANCH  20  21
ENDBRANCH  18  20
ENDBRANCH   1  18
BRANCH   8  23
HETATM   23  C16 225   386      -1.793  35.108 236.938  1.00 20.00     0.295 C 
HETATM   24  O3  225   386      -1.882  34.322 237.882  1.00 20.00    -0.259 OA
BRANCH  23  25
HETATM   25  O4  225   386      -2.869  35.356 236.134  1.00 20.00    -0.322 OA
HETATM   26  C17 225   386      -2.737  35.121 234.725  1.00 20.00     0.213 C 
ENDBRANCH  23  25
ENDBRANCH   8  23
TORSDOF 6
ENDMDL
MODEL 3
REMARK VINA RESULT:      -6.0      2.114      5.091
REMARK  6 active torsions:
REMARK  status: ('A' for Active; 'I' for Inactive)
REMARK    1  A    between atoms: C14_2  and  O2_3 
REMARK    2  A    between atoms: C13_4  and  O2_3 
REMARK    3  A    between atoms: C13_4  and  C2_6 
REMARK    4  A    between atoms: C16_14  and  C4_13 
REMARK    5  A    between atoms: C16_14  and  O4_16 
REMARK    6  A    between atoms: C3_18  and  C6_19 
ROOT
HETATM    1  C2  225   386      -0.741  34.566 236.667  1.00 20.00     0.073 C 
HETATM    2  C1  225   386      -1.024  33.630 237.673  1.00 20.00     0.022 C 
HETATM    3  C12 225   386      -2.439  33.244 238.124  1.00 20.00     0.069 C 
HETATM    4  N1  225   386      -0.014  32.957 238.262  1.00 20.00    -0.362 N 
ATOM      5  H1  225   386      -0.274  32.284 238.984  1.00  0.00     0.165 HD
HETATM    6  C5  225   386       1.303  33.080 237.998  1.00 20.00     0.022 C 
HETATM    7  C18 225   386       2.237  32.084 238.695  1.00 20.00     0.069 C 
HETATM    8  C4  225   386       1.729  34.010 237.038  1.00 20.00     0.073 C 
HETATM    9  C3  225   386       0.660  34.464 236.017  1.00 20.00     0.012 C 
ENDROOT
BRANCH   9  10
HETATM   10  C6  225   386       0.739  33.858 234.594  1.00 20.00    -0.000 A 
HETATM   11  C11 225   386       1.010  34.624 233.443  1.00 20.00     0.067 A 
HETATM   12  C10 225   386       1.044  34.004 232.185  1.00 20.00     0.056 A 
HETATM   13 CL2  225   386       1.290  36.334 233.522  1.00 20.00    -0.082 Cl
HETATM   14 CL1  225   386       1.449  34.831 230.720  1.00 20.00    -0.083 Cl
HETATM   15  C9  225   386       0.799  32.634 232.061  1.00 20.00     0.026 A 
HETATM   16  C8  225   386       0.532  31.856 233.189  1.00 20.00     0.003 A 
HETATM   17  C7  225   386       0.508  32.482 234.435  1.00 20.00     0.014 A 
ENDBRANCH   9  10
BRANCH   1  18
HETATM   18  C13 225   386      -1.710  35.672 236.208  1.00 20.00     0.296 C 
HETATM   19  O1  225   386      -2.407  35.515 235.203  1.00 20.00    -0.259 OA
BRANCH  18  20
HETATM   20  O2  225   386      -1.812  36.805 236.966  1.00 20.00    -0.318 OA
BRANCH  20  21
HETATM   21  C14 225   386      -1.049  37.967 236.594  1.00 20.00     0.174 C 
HETATM   22  C15 225   386       0.358  37.890 237.193  1.00 20.00     0.034 C 
ENDBRANCH  20  21
ENDBRANCH  18  20
ENDBRANCH   1  18
BRANCH   8  23
HETATM   23  C16 225   386       3.091  34.727 237.086  1.00 20.00     0.295 C 
HETATM   24  O3  225   386       3.926  34.534 236.202  1.00 20.00    -0.259 OA
BRANCH  23  25
HETATM   25  O4  225   386       3.372  35.543 238.144  1.00 20.00    -0.322 OA
HETATM   26  C17 225   386       3.910  36.845 237.878  1.00 20.00     0.213 C 
ENDBRANCH  23  25
ENDBRANCH   8  23
TORSDOF 6
ENDMDL
MODEL 4
REMARK VINA RESULT:      -5.5      2.715      5.101
REMARK  6 active torsions:
REMARK  status: ('A' for Active; 'I' for Inactive)
REMARK    1  A    between atoms: C14_2  and  O2_3 
REMARK    2  A    between atoms: C13_4  and  O2_3 
REMARK    3  A    between atoms: C13_4  and  C2_6 
REMARK    4  A    between atoms: C16_14  and  C4_13 
REMARK    5  A    between atoms: C16_14  and  O4_16 
REMARK    6  A    between atoms: C3_18  and  C6_19 
ROOT
HETATM    1  C2  225   386      -0.836  34.247 234.720  1.00 20.00     0.073 C 
HETATM    2  C1  225   386      -2.038  34.905 235.024  1.00 20.00     0.022 C 
HETATM    3  C12 225   386      -3.433  34.325 234.760  1.00 20.00     0.069 C 
HETATM    4  N1  225   386      -2.005  36.102 235.646  1.00 20.00    -0.362 N 
ATOM      5  H1  225   386      -2.906  36.536 235.848  1.00  0.00     0.165 HD
HETATM    6  C5  225   386      -0.906  36.785 236.030  1.00 20.00     0.022 C 
HETATM    7  C18 225   386      -1.143  38.049 236.864  1.00 20.00     0.069 C 
HETATM    8  C4  225   386       0.364  36.257 235.754  1.00 20.00     0.073 C 
HETATM    9  C3  225   386       0.419  34.736 235.483  1.00 20.00     0.012 C 
ENDROOT
BRANCH   9  10
HETATM   10  C6  225   386       0.951  33.835 236.624  1.00 20.00    -0.000 A 
HETATM   11  C11 225   386       2.319  33.557 236.814  1.00 20.00     0.067 A 
HETATM   12  C10 225   386       2.721  32.712 237.860  1.00 20.00     0.056 A 
HETATM   13 CL2  225   386       3.543  34.217 235.776  1.00 20.00    -0.082 Cl
HETATM   14 CL1  225   386       4.376  32.372 238.235  1.00 20.00    -0.083 Cl
HETATM   15  C9  225   386       1.775  32.134 238.708  1.00 20.00     0.026 A 
HETATM   16  C8  225   386       0.414  32.397 238.540  1.00 20.00     0.003 A 
HETATM   17  C7  225   386       0.028  33.244 237.501  1.00 20.00     0.014 A 
ENDBRANCH   9  10
BRANCH   1  18
HETATM   18  C13 225   386      -0.699  33.118 233.682  1.00 20.00     0.296 C 
HETATM   19  O1  225   386      -0.706  31.938 234.038  1.00 20.00    -0.259 OA
BRANCH  18  20
HETATM   20  O2  225   386      -0.618  33.455 232.360  1.00 20.00    -0.318 OA
BRANCH  20  21
HETATM   21  C14 225   386       0.674  33.503 231.727  1.00 20.00     0.174 C 
HETATM   22  C15 225   386       1.220  34.933 231.747  1.00 20.00     0.034 C 
ENDBRANCH  20  21
ENDBRANCH  18  20
ENDBRANCH   1  18
BRANCH   8  23
HETATM   23  C16 225   386       1.614  37.122 235.507  1.00 20.00     0.295 C 
HETATM   24  O3  225   386       2.161  37.123 234.403  1.00 20.00    -0.259 OA
BRANCH  23  25
HETATM   25  O4  225   386       2.129  37.851 236.540  1.00 20.00    -0.322 OA
HETATM   26  C17 225   386       2.635  37.150 237.685  1.00 20.00     0.213 C 
ENDBRANCH  23  25
ENDBRANCH   8  23
TORSDOF 6
ENDMDL
MODEL 5
REMARK VINA RESULT:      -5.5      3.064      5.087
REMARK  6 active torsions:
REMARK  status: ('A' for Active; 'I' for Inactive)
REMARK    1  A    between atoms: C14_2  and  O2_3 
REMARK    2  A    between atoms: C13_4  and  O2_3 
REMARK    3  A    between atoms: C13_4  and  C2_6 
REMARK    4  A    between atoms: C16_14  and  C4_13 
REMARK    5  A    between atoms: C16_14  and  O4_16 
REMARK    6  A    between atoms: C3_18  and  C6_19 
ROOT
HETATM    1  C2  225   386       1.323  32.904 235.455  1.00 20.00     0.073 C 
HETATM    2  C1  225   386       2.273  32.074 236.071  1.00 20.00     0.022 C 
HETATM    3  C12 225   386       3.620  31.689 235.447  1.00 20.00     0.069 C 
HETATM    4  N1  225   386       2.049  31.615 237.320  1.00 20.00    -0.362 N 
ATOM      5  H1  225   386       2.772  31.019 237.724  1.00  0.00     0.165 HD
HETATM    6  C5  225   386       0.970  31.862 238.091  1.00 20.00     0.022 C 
HETATM    7  C18 225   386       1.030  31.353 239.536  1.00 20.00     0.069 C 
HETATM    8  C4  225   386      -0.074  32.649 237.583  1.00 20.00     0.073 C 
HETATM    9  C3  225   386       0.290  33.570 236.396  1.00 20.00     0.012 C 
ENDROOT
BRANCH   9  10
HETATM   10  C6  225   386       0.476  35.076 236.701  1.00 20.00    -0.000 A 
HETATM   11  C11 225   386      -0.559  36.023 236.573  1.00 20.00     0.067 A 
HETATM   12  C10 225   386      -0.306  37.376 236.848  1.00 20.00     0.056 A 
HETATM   13 CL2  225   386      -2.156  35.576 236.062  1.00 20.00    -0.082 Cl
HETATM   14 CL1  225   386      -1.522  38.607 236.805  1.00 20.00    -0.083 Cl
HETATM   15  C9  225   386       0.968  37.794 237.237  1.00 20.00     0.026 A 
HETATM   16  C8  225   386       2.008  36.872 237.373  1.00 20.00     0.003 A 
HETATM   17  C7  225   386       1.742  35.530 237.104  1.00 20.00     0.014 A 
ENDBRANCH   9  10
BRANCH   1  18
HETATM   18  C13 225   386       1.242  33.160 233.938  1.00 20.00     0.296 C 
HETATM   19  O1  225   386       0.942  32.247 233.166  1.00 20.00    -0.259 OA
BRANCH  18  20
HETATM   20  O2  225   386       1.461  34.428 233.479  1.00 20.00    -0.318 OA
BRANCH  20  21
HETATM   21  C14 225   386       0.596  34.963 232.460  1.00 20.00     0.174 C 
HETATM   22  C15 225   386       1.310  34.958 231.106  1.00 20.00     0.034 C 
ENDBRANCH  20  21
ENDBRANCH  18  20
ENDBRANCH   1  18
BRANCH   8  23
HETATM   23  C16 225   386      -1.549  32.485 237.996  1.00 20.00     0.295 C 
HETATM   24  O3  225   386      -2.113  33.365 238.648  1.00 20.00    -0.259 OA
BRANCH  23  25
HETATM   25  O4  225   386      -2.204  31.332 237.668  1.00 20.00    -0.322 OA
HETATM   26  C17 225   386      -2.537  30.413 238.717  1.00 20.00     0.213 C 
ENDBRANCH  23  25
ENDBRANCH   8  23
TORSDOF 6
ENDMDL
MODEL 6
REMARK VINA RESULT:      -5.4      2.851      5.076
REMARK  6 active torsions:
REMARK  status: ('A' for Active; 'I' for Inactive)
REMARK    1  A    between atoms: C14_2  and  O2_3 
REMARK    2  A    between atoms: C13_4  and  O2_3 
REMARK    3  A    between atoms: C13_4  and  C2_6 
REMARK    4  A    between atoms: C16_14  and  C4_13 
REMARK    5  A    between atoms: C16_14  and  O4_16 
REMARK    6  A    between atoms: C3_18  and  C6_19 
ROOT
HETATM    1  C2  225   386       3.303  34.347 237.293  1.00 20.00     0.073 C 
HETATM    2  C1  225   386       3.711  33.742 238.492  1.00 20.00     0.022 C 
HETATM    3  C12 225   386       4.227  34.508 239.717  1.00 20.00     0.069 C 
HETATM    4  N1  225   386       3.599  32.405 238.638  1.00 20.00    -0.362 N 
ATOM      5  H1  225   386       3.905  32.016 239.529  1.00  0.00     0.165 HD
HETATM    6  C5  225   386       3.123  31.530 237.728  1.00 20.00     0.022 C 
HETATM    7  C18 225   386       2.949  30.081 238.199  1.00 20.00     0.069 C 
HETATM    8  C4  225   386       2.713  31.997 236.471  1.00 20.00     0.073 C 
HETATM    9  C3  225   386       2.373  33.503 236.387  1.00 20.00     0.012 C 
ENDROOT
BRANCH   9  10
HETATM   10  C6  225   386       0.874  33.888 236.354  1.00 20.00    -0.000 A 
HETATM   11  C11 225   386       0.274  34.556 235.269  1.00 20.00     0.067 A 
HETATM   12  C10 225   386      -1.089  34.890 235.323  1.00 20.00     0.056 A 
HETATM   13 CL2  225   386       1.172  35.003 233.854  1.00 20.00    -0.082 Cl
HETATM   14 CL1  225   386      -1.946  35.633 234.016  1.00 20.00    -0.083 Cl
HETATM   15  C9  225   386      -1.852  34.577 236.450  1.00 20.00     0.026 A 
HETATM   16  C8  225   386      -1.277  33.913 237.535  1.00 20.00     0.003 A 
HETATM   17  C7  225   386       0.076  33.580 237.466  1.00 20.00     0.014 A 
ENDBRANCH   9  10
BRANCH   1  18
HETATM   18  C13 225   386       3.736  35.752 236.834  1.00 20.00     0.296 C 
HETATM   19  O1  225   386       4.659  35.888 236.028  1.00 20.00    -0.259 OA
BRANCH  18  20
HETATM   20  O2  225   386       3.043  36.833 237.302  1.00 20.00    -0.318 OA
BRANCH  20  21
HETATM   21  C14 225   386       2.083  37.474 236.443  1.00 20.00     0.174 C 
HETATM   22  C15 225   386       0.772  37.711 237.199  1.00 20.00     0.034 C 
ENDBRANCH  20  21
ENDBRANCH  18  20
ENDBRANCH   1  18
BRANCH   8  23
HETATM   23  C16 225   386       2.791  31.160 235.180  1.00 20.00     0.295 C 
HETATM   24  O3  225   386       3.847  31.087 234.550  1.00 20.00    -0.259 OA
BRANCH  23  25
HETATM   25  O4  225   386       1.663  30.539 234.725  1.00 20.00    -0.322 OA
HETATM   26  C17 225   386       0.938  31.145 233.646  1.00 20.00     0.213 C 
ENDBRANCH  23  25
ENDBRANCH   8  23
TORSDOF 6
ENDMDL
MODEL 7
REMARK VINA RESULT:      -5.3      2.328      3.279
REMARK  6 active torsions:
REMARK  status: ('A' for Active; 'I' for Inactive)
REMARK    1  A    between atoms: C14_2  and  O2_3 
REMARK    2  A    between atoms: C13_4  and  O2_3 
REMARK    3  A    between atoms: C13_4  and  C2_6 
REMARK    4  A    between atoms: C16_14  and  C4_13 
REMARK    5  A    between atoms: C16_14  and  O4_16 
REMARK    6  A    between atoms: C3_18  and  C6_19 
ROOT
HETATM    1  C2  225   386       1.308  33.131 235.252  1.00 20.00     0.073 C 
HETATM    2  C1  225   386       2.531  33.604 235.751  1.00 20.00     0.022 C 
HETATM    3  C12 225   386       3.820  32.775 235.814  1.00 20.00     0.069 C 
HETATM    4  N1  225   386       2.635  34.888 236.155  1.00 20.00    -0.362 N 
ATOM      5  H1  225   386       3.547  35.183 236.506  1.00  0.00     0.165 HD
HETATM    6  C5  225   386       1.661  35.821 236.143  1.00 20.00     0.022 C 
HETATM    7  C18 225   386       2.080  37.251 236.505  1.00 20.00     0.069 C 
HETATM    8  C4  225   386       0.377  35.471 235.702  1.00 20.00     0.073 C 
HETATM    9  C3  225   386       0.289  34.210 234.812  1.00 20.00     0.012 C 
ENDROOT
BRANCH   9  10
HETATM   10  C6  225   386       0.101  34.430 233.291  1.00 20.00    -0.000 A 
HETATM   11  C11 225   386      -1.134  34.264 232.635  1.00 20.00     0.067 A 
HETATM   12  C10 225   386      -1.220  34.461 231.248  1.00 20.00     0.056 A 
HETATM   13 CL2  225   386      -2.573  33.800 233.486  1.00 20.00    -0.082 Cl
HETATM   14 CL1  225   386      -2.699  34.367 230.355  1.00 20.00    -0.083 Cl
HETATM   15  C9  225   386      -0.086  34.809 230.510  1.00 20.00     0.026 A 
HETATM   16  C8  225   386       1.147  34.982 231.141  1.00 20.00     0.003 A 
HETATM   17  C7  225   386       1.217  34.790 232.520  1.00 20.00     0.014 A 
ENDBRANCH   9  10
BRANCH   1  18
HETATM   18  C13 225   386       0.928  31.642 235.145  1.00 20.00     0.296 C 
HETATM   19  O1  225   386       0.909  30.928 236.150  1.00 20.00    -0.259 OA
BRANCH  18  20
HETATM   20  O2  225   386       0.566  31.148 233.923  1.00 20.00    -0.318 OA
BRANCH  20  21
HETATM   21  C14 225   386       1.557  31.059 232.883  1.00 20.00     0.174 C 
HETATM   22  C15 225   386       0.888  31.133 231.508  1.00 20.00     0.034 C 
ENDBRANCH  20  21
ENDBRANCH  18  20
ENDBRANCH   1  18
BRANCH   8  23
HETATM   23  C16 225   386      -0.915  36.132 236.217  1.00 20.00     0.295 C 
HETATM   24  O3  225   386      -1.694  35.501 236.933  1.00 20.00    -0.259 OA
BRANCH  23  25
HETATM   25  O4  225   386      -1.202  37.411 235.834  1.00 20.00    -0.322 OA
HETATM   26  C17 225   386      -1.363  38.410 236.851  1.00 20.00     0.213 C 
ENDBRANCH  23  25
ENDBRANCH   8  23
TORSDOF 6
ENDMDL
MODEL 8
REMARK VINA RESULT:      -5.3      2.447      4.130
REMARK  6 active torsions:
REMARK  status: ('A' for Active; 'I' for Inactive)
REMARK    1  A    between atoms: C14_2  and  O2_3 
REMARK    2  A    between atoms: C13_4  and  O2_3 
REMARK    3  A    between atoms: C13_4  and  C2_6 
REMARK    4  A    between atoms: C16_14  and  C4_13 
REMARK    5  A    between atoms: C16_14  and  O4_16 
REMARK    6  A    between atoms: C3_18  and  C6_19 
ROOT
HETATM    1  C2  225   386       0.561  33.605 237.184  1.00 20.00     0.073 C 
HETATM    2  C1  225   386       1.633  33.481 238.081  1.00 20.00     0.022 C 
HETATM    3  C12 225   386       1.684  32.471 239.235  1.00 20.00     0.069 C 
HETATM    4  N1  225   386       2.736  34.239 237.913  1.00 20.00    -0.362 N 
ATOM      5  H1  225   386       3.489  34.107 238.590  1.00  0.00     0.165 HD
HETATM    6  C5  225   386       2.950  35.154 236.944  1.00 20.00     0.022 C 
HETATM    7  C18 225   386       4.354  35.767 236.879  1.00 20.00     0.069 C 
HETATM    8  C4  225   386       1.943  35.405 236.001  1.00 20.00     0.073 C 
HETATM    9  C3  225   386       0.880  34.294 235.835  1.00 20.00     0.012 C 
ENDROOT
BRANCH   9  10
HETATM   10  C6  225   386       0.995  33.388 234.585  1.00 20.00    -0.000 A 
HETATM   11  C11 225   386       0.289  33.628 233.390  1.00 20.00     0.067 A 
HETATM   12  C10 225   386       0.430  32.747 232.307  1.00 20.00     0.056 A 
HETATM   13 CL2  225   386      -0.778  34.984 233.210  1.00 20.00    -0.082 Cl
HETATM   14 CL1  225   386      -0.322  32.992 230.768  1.00 20.00    -0.083 Cl
HETATM   15  C9  225   386       1.256  31.625 232.407  1.00 20.00     0.026 A 
HETATM   16  C8  225   386       1.966  31.369 233.581  1.00 20.00     0.003 A 
HETATM   17  C7  225   386       1.823  32.256 234.648  1.00 20.00     0.014 A 
ENDBRANCH   9  10
BRANCH   1  18
HETATM   18  C13 225   386      -0.876  33.131 237.471  1.00 20.00     0.296 C 
HETATM   19  O1  225   386      -1.711  33.911 237.932  1.00 20.00    -0.259 OA
BRANCH  18  20
HETATM   20  O2  225   386      -1.211  31.844 237.157  1.00 20.00    -0.318 OA
BRANCH  20  21
HETATM   21  C14 225   386      -2.411  31.597 236.401  1.00 20.00     0.174 C 
HETATM   22  C15 225   386      -2.063  31.293 234.941  1.00 20.00     0.034 C 
ENDBRANCH  20  21
ENDBRANCH  18  20
ENDBRANCH   1  18
BRANCH   8  23
HETATM   23  C16 225   386       1.737  36.766 235.311  1.00 20.00     0.295 C 
HETATM   24  O3  225   386       1.867  36.870 234.090  1.00 20.00    -0.259 OA
BRANCH  23  25
HETATM   25  O4  225   386       1.453  37.860 236.077  1.00 20.00    -0.322 OA
HETATM   26  C17 225   386       0.351  37.786 236.992  1.00 20.00     0.213 C 
ENDBRANCH  23  25
ENDBRANCH   8  23
TORSDOF 6
ENDMDL
MODEL 9
REMARK VINA RESULT:      -5.2      2.462      5.684
REMARK  6 active torsions:
REMARK  status: ('A' for Active; 'I' for Inactive)
REMARK    1  A    between atoms: C14_2  and  O2_3 
REMARK    2  A    between atoms: C13_4  and  O2_3 
REMARK    3  A    between atoms: C13_4  and  C2_6 
REMARK    4  A    between atoms: C16_14  and  C4_13 
REMARK    5  A    between atoms: C16_14  and  O4_16 
REMARK    6  A    between atoms: C3_18  and  C6_19 
ROOT
HETATM    1  C2  225   386      -1.390  34.311 235.450  1.00 20.00     0.073 C 
HETATM    2  C1  225   386      -1.841  34.511 234.136  1.00 20.00     0.022 C 
HETATM    3  C12 225   386      -3.174  35.175 233.769  1.00 20.00     0.069 C 
HETATM    4  N1  225   386      -1.050  34.166 233.098  1.00 20.00    -0.362 N 
ATOM      5  H1  225   386      -1.422  34.336 232.164  1.00  0.00     0.165 HD
HETATM    6  C5  225   386       0.182  33.621 233.167  1.00 20.00     0.022 C 
HETATM    7  C18 225   386       0.939  33.471 231.842  1.00 20.00     0.069 C 
HETATM    8  C4  225   386       0.740  33.334 234.422  1.00 20.00     0.073 C 
HETATM    9  C3  225   386       0.134  34.099 235.621  1.00 20.00     0.012 C 
ENDROOT
BRANCH   9  10
HETATM   10  C6  225   386       0.955  35.280 236.193  1.00 20.00    -0.000 A 
HETATM   11  C11 225   386       1.862  35.143 237.262  1.00 20.00     0.067 A 
HETATM   12  C10 225   386       2.554  36.268 237.739  1.00 20.00     0.056 A 
HETATM   13 CL2  225   386       2.147  33.617 238.035  1.00 20.00    -0.082 Cl
HETATM   14 CL1  225   386       3.750  36.199 238.987  1.00 20.00    -0.083 Cl
HETATM   15  C9  225   386       2.341  37.525 237.170  1.00 20.00     0.026 A 
HETATM   16  C8  225   386       1.449  37.683 236.108  1.00 20.00     0.003 A 
HETATM   17  C7  225   386       0.773  36.557 235.638  1.00 20.00     0.014 A 
ENDBRANCH   9  10
BRANCH   1  18
HETATM   18  C13 225   386      -2.305  34.268 236.688  1.00 20.00     0.296 C 
HETATM   19  O1  225   386      -2.615  35.308 237.272  1.00 20.00    -0.259 OA
BRANCH  18  20
HETATM   20  O2  225   386      -2.799  33.059 237.091  1.00 20.00    -0.318 OA
BRANCH  20  21
HETATM   21  C14 225   386      -2.582  32.630 238.447  1.00 20.00     0.174 C 
HETATM   22  C15 225   386      -1.136  32.157 238.627  1.00 20.00     0.034 C 
ENDBRANCH  20  21
ENDBRANCH  18  20
ENDBRANCH   1  18
BRANCH   8  23
HETATM   23  C16 225   386       1.735  32.186 234.674  1.00 20.00     0.295 C 
HETATM   24  O3  225   386       1.367  31.013 234.585  1.00 20.00    -0.259 OA
BRANCH  23  25
HETATM   25  O4  225   386       3.015  32.488 235.039  1.00 20.00    -0.322 OA
HETATM   26  C17 225   386       3.953  31.414 235.193  1.00 20.00     0.213 C 
ENDBRANCH  23  25
ENDBRANCH   8  23
TORSDOF 6
ENDMDL
