MODEL 1
REMARK VINA RESULT:      -7.5      0.000      0.000
REMARK  4 active torsions:
REMARK  status: ('A' for Active; 'I' for Inactive)
REMARK    1  A    between atoms: C14_3  and  O18_1 
REMARK    2  A    between atoms: C20_7  and  O23_8 
REMARK    3  A    between atoms: C21_12  and  C25_15 
REMARK    4  A    between atoms: C21_12  and  O24_13 
ROOT
HETATM    1  C14 EHD  3335       2.773  33.001 236.547  1.00 20.00     0.152 A 
HETATM    2  C15 EHD  3335       2.839  34.305 236.912  1.00 20.00     0.026 A 
HETATM    3  C19 EHD  3335       3.436  34.595 238.254  1.00 20.00     0.214 C 
HETATM    4  O22 EHD  3335       4.230  35.815 238.156  1.00 20.00    -0.353 OA
HETATM    5  C20 EHD  3335       3.829  36.925 237.385  1.00 20.00     0.296 C 
HETATM    6  C16 EHD  3335       2.382  35.421 236.097  1.00 20.00    -0.004 A 
HETATM    7  C17 EHD  3335       1.854  35.006 234.844  1.00 20.00     0.043 A 
HETATM    8  C21 EHD  3335       2.533  36.866 236.610  1.00 20.00     0.135 C 
HETATM    9  N12 EHD  3335       2.241  32.681 235.309  1.00 20.00    -0.321 N 
HETATM   10  C11 EHD  3335       2.125  31.329 234.793  1.00 20.00     0.172 A 
HETATM   11  C8  EHD  3335       1.532  31.585 233.445  1.00 20.00    -0.010 A 
HETATM   12  C7  EHD  3335       1.171  30.801 232.423  1.00 20.00     0.025 A 
HETATM   13  C6  EHD  3335       0.631  31.343 231.249  1.00 20.00    -0.009 A 
HETATM   14  C5  EHD  3335       0.477  32.782 231.166  1.00 20.00     0.043 A 
HETATM   15  N10 EHD  3335       0.850  33.682 232.243  1.00 20.00    -0.353 N 
ATOM     16  H10 EHD  3335       0.742  34.695 232.189  1.00  0.00     0.166 HD
HETATM   17  C9  EHD  3335       1.353  33.049 233.321  1.00 20.00     0.068 A 
HETATM   18  C13 EHD  3335       1.801  33.638 234.482  1.00 20.00     0.065 A 
HETATM   19  C1  EHD  3335       0.244  30.533 230.175  1.00 20.00     0.014 A 
HETATM   20  C2  EHD  3335      -0.285  31.107 229.036  1.00 20.00     0.001 A 
HETATM   21  C3  EHD  3335      -0.432  32.520 228.955  1.00 20.00     0.002 A 
HETATM   22  C4  EHD  3335      -0.046  33.379 230.049  1.00 20.00     0.030 A 
ENDROOT
BRANCH   8  23
HETATM   23  C25 EHD  3335       1.353  37.285 237.519  1.00 20.00     0.043 C 
HETATM   24  C31 EHD  3335       0.127  37.902 236.752  1.00 20.00     0.009 C 
ENDBRANCH   8  23
BRANCH   8  25
HETATM   25  O24 EHD  3335       2.679  37.734 235.596  1.00 20.00    -0.380 OA
ATOM     26  H24 EHD  3335       1.857  38.158 235.381  1.00  0.00     0.211 HD
ENDBRANCH   8  25
BRANCH   5  27
HETATM   27  O23 EHD  3335       4.601  37.983 237.339  1.00 20.00    -0.368 OA
ATOM     28  H23 EHD  3335       4.204  38.846 237.338  1.00  0.00     0.212 HD
ENDBRANCH   5  27
BRANCH   1  29
HETATM   29  O18 EHD  3335       3.237  32.028 237.361  1.00 20.00    -0.345 OA
ATOM     30  H18 EHD  3335       3.874  31.400 237.041  1.00  0.00     0.219 HD
ENDBRANCH   1  29
TORSDOF 4
ENDMDL
MODEL 2
REMARK VINA RESULT:      -7.2      1.245      1.744
REMARK  4 active torsions:
REMARK  status: ('A' for Active; 'I' for Inactive)
REMARK    1  A    between atoms: C14_3  and  O18_1 
REMARK    2  A    between atoms: C20_7  and  O23_8 
REMARK    3  A    between atoms: C21_12  and  C25_15 
REMARK    4  A    between atoms: C21_12  and  O24_13 
ROOT
HETATM    1  C14 EHD  3335       2.181  33.139 235.241  1.00 20.00     0.152 A 
HETATM    2  C15 EHD  3335       2.393  34.278 235.945  1.00 20.00     0.026 A 
HETATM    3  C19 EHD  3335       3.031  34.125 237.289  1.00 20.00     0.214 C 
HETATM    4  O22 EHD  3335       3.953  35.238 237.497  1.00 20.00    -0.353 OA
HETATM    5  C20 EHD  3335       3.669  36.551 237.073  1.00 20.00     0.296 C 
HETATM    6  C16 EHD  3335       2.052  35.616 235.483  1.00 20.00    -0.004 A 
HETATM    7  C17 EHD  3335       1.470  35.618 234.186  1.00 20.00     0.043 A 
HETATM    8  C21 EHD  3335       2.366  36.841 236.363  1.00 20.00     0.135 C 
HETATM    9  N12 EHD  3335       1.605  33.228 233.985  1.00 20.00    -0.321 N 
HETATM   10  C11 EHD  3335       1.336  32.090 233.125  1.00 20.00     0.172 A 
HETATM   11  C8  EHD  3335       0.761  32.766 231.923  1.00 20.00    -0.010 A 
HETATM   12  C7  EHD  3335       0.306  32.334 230.741  1.00 20.00     0.025 A 
HETATM   13  C6  EHD  3335      -0.184  33.230 229.781  1.00 20.00    -0.009 A 
HETATM   14  C5  EHD  3335      -0.180  34.645 230.100  1.00 20.00     0.043 A 
HETATM   15  N10 EHD  3335       0.300  35.170 231.365  1.00 20.00    -0.353 N 
ATOM     16  H10 EHD  3335       0.303  36.165 231.593  1.00  0.00     0.166 HD
HETATM   17  C9  EHD  3335       0.741  34.218 232.209  1.00 20.00     0.068 A 
HETATM   18  C13 EHD  3335       1.264  34.415 233.468  1.00 20.00     0.065 A 
HETATM   19  C1  EHD  3335      -0.668  32.791 228.544  1.00 20.00     0.014 A 
HETATM   20  C2  EHD  3335      -1.143  33.707 227.626  1.00 20.00     0.001 A 
HETATM   21  C3  EHD  3335      -1.135  35.095 227.939  1.00 20.00     0.002 A 
HETATM   22  C4  EHD  3335      -0.646  35.576 229.209  1.00 20.00     0.030 A 
ENDROOT
BRANCH   8  23
HETATM   23  C25 EHD  3335       1.248  37.113 237.398  1.00 20.00     0.043 C 
HETATM   24  C31 EHD  3335       0.028  37.930 236.839  1.00 20.00     0.009 C 
ENDBRANCH   8  23
BRANCH   8  25
HETATM   25  O24 EHD  3335       2.596  37.934 235.619  1.00 20.00    -0.380 OA
ATOM     26  H24 EHD  3335       2.095  37.918 234.813  1.00  0.00     0.211 HD
ENDBRANCH   8  25
BRANCH   5  27
HETATM   27  O23 EHD  3335       4.551  37.496 237.286  1.00 20.00    -0.368 OA
ATOM     28  H23 EHD  3335       4.329  38.215 237.866  1.00  0.00     0.212 HD
ENDBRANCH   5  27
BRANCH   1  29
HETATM   29  O18 EHD  3335       2.544  31.938 235.741  1.00 20.00    -0.345 OA
ATOM     30  H18 EHD  3335       2.881  31.261 235.164  1.00  0.00     0.219 HD
ENDBRANCH   1  29
TORSDOF 4
ENDMDL
MODEL 3
REMARK VINA RESULT:      -7.1      2.209      3.117
REMARK  4 active torsions:
REMARK  status: ('A' for Active; 'I' for Inactive)
REMARK    1  A    between atoms: C14_3  and  O18_1 
REMARK    2  A    between atoms: C20_7  and  O23_8 
REMARK    3  A    between atoms: C21_12  and  C25_15 
REMARK    4  A    between atoms: C21_12  and  O24_13 
ROOT
HETATM    1  C14 EHD  3335       0.460  32.858 234.102  1.00 20.00     0.152 A 
HETATM    2  C15 EHD  3335       0.739  33.877 234.950  1.00 20.00     0.026 A 
HETATM    3  C19 EHD  3335       0.573  33.598 236.410  1.00 20.00     0.214 C 
HETATM    4  O22 EHD  3335       1.641  34.276 237.139  1.00 20.00    -0.353 OA
HETATM    5  C20 EHD  3335       2.109  35.558 236.785  1.00 20.00     0.296 C 
HETATM    6  C16 EHD  3335       1.189  35.200 234.540  1.00 20.00    -0.004 A 
HETATM    7  C17 EHD  3335       1.321  35.322 233.130  1.00 20.00     0.043 A 
HETATM    8  C21 EHD  3335       1.502  36.273 235.600  1.00 20.00     0.135 C 
HETATM    9  N12 EHD  3335       0.611  33.061 232.740  1.00 20.00    -0.321 N 
HETATM   10  C11 EHD  3335       0.357  32.051 231.728  1.00 20.00     0.172 A 
HETATM   11  C8  EHD  3335       0.708  32.798 230.482  1.00 20.00    -0.010 A 
HETATM   12  C7  EHD  3335       0.724  32.483 229.181  1.00 20.00     0.025 A 
HETATM   13  C6  EHD  3335       1.115  33.417 228.214  1.00 20.00    -0.009 A 
HETATM   14  C5  EHD  3335       1.511  34.739 228.658  1.00 20.00     0.043 A 
HETATM   15  N10 EHD  3335       1.513  35.138 230.054  1.00 20.00    -0.353 N 
ATOM     16  H10 EHD  3335       1.790  36.067 230.371  1.00  0.00     0.166 HD
HETATM   17  C9  EHD  3335       1.115  34.161 230.892  1.00 20.00     0.068 A 
HETATM   18  C13 EHD  3335       1.028  34.241 232.264  1.00 20.00     0.065 A 
HETATM   19  C1  EHD  3335       1.130  33.102 226.850  1.00 20.00     0.014 A 
HETATM   20  C2  EHD  3335       1.522  34.052 225.928  1.00 20.00     0.001 A 
HETATM   21  C3  EHD  3335       1.914  35.349 226.366  1.00 20.00     0.002 A 
HETATM   22  C4  EHD  3335       1.903  35.702 227.766  1.00 20.00     0.030 A 
ENDROOT
BRANCH   8  23
HETATM   23  C25 EHD  3335       0.233  37.042 236.038  1.00 20.00     0.043 C 
HETATM   24  C31 EHD  3335       0.429  37.956 237.302  1.00 20.00     0.009 C 
ENDBRANCH   8  23
BRANCH   8  25
HETATM   25  O24 EHD  3335       2.446  37.126 235.171  1.00 20.00    -0.380 OA
ATOM     26  H24 EHD  3335       3.051  36.704 234.573  1.00  0.00     0.211 HD
ENDBRANCH   8  25
BRANCH   5  27
HETATM   27  O23 EHD  3335       3.078  36.098 237.482  1.00 20.00    -0.368 OA
ATOM     28  H23 EHD  3335       3.975  35.990 237.189  1.00  0.00     0.212 HD
ENDBRANCH   5  27
BRANCH   1  29
HETATM   29  O18 EHD  3335       0.063  31.654 234.571  1.00 20.00    -0.345 OA
ATOM     30  H18 EHD  3335      -0.525  31.110 234.058  1.00  0.00     0.219 HD
ENDBRANCH   1  29
TORSDOF 4
ENDMDL
MODEL 4
REMARK VINA RESULT:      -7.0      2.610      3.708
REMARK  4 active torsions:
REMARK  status: ('A' for Active; 'I' for Inactive)
REMARK    1  A    between atoms: C14_3  and  O18_1 
REMARK    2  A    between atoms: C20_7  and  O23_8 
REMARK    3  A    between atoms: C21_12  and  C25_15 
REMARK    4  A    between atoms: C21_12  and  O24_13 
ROOT
HETATM    1  C14 EHD  3335       1.055  32.969 233.630  1.00 20.00     0.152 A 
HETATM    2  C15 EHD  3335       1.608  33.800 234.547  1.00 20.00     0.026 A 
HETATM    3  C19 EHD  3335       2.428  33.158 235.621  1.00 20.00     0.214 C 
HETATM    4  O22 EHD  3335       3.574  34.016 235.908  1.00 20.00    -0.353 OA
HETATM    5  C20 EHD  3335       3.486  35.422 235.928  1.00 20.00     0.296 C 
HETATM    6  C16 EHD  3335       1.464  35.248 234.551  1.00 20.00    -0.004 A 
HETATM    7  C17 EHD  3335       0.676  35.724 233.468  1.00 20.00     0.043 A 
HETATM    8  C21 EHD  3335       2.163  36.092 235.634  1.00 20.00     0.135 C 
HETATM    9  N12 EHD  3335       0.298  33.514 232.606  1.00 20.00    -0.321 N 
HETATM   10  C11 EHD  3335      -0.337  32.740 231.555  1.00 20.00     0.172 A 
HETATM   11  C8  EHD  3335      -0.968  33.822 230.740  1.00 20.00    -0.010 A 
HETATM   12  C7  EHD  3335      -1.698  33.838 229.619  1.00 20.00     0.025 A 
HETATM   13  C6  EHD  3335      -2.161  35.042 229.072  1.00 20.00    -0.009 A 
HETATM   14  C5  EHD  3335      -1.821  36.278 229.750  1.00 20.00     0.043 A 
HETATM   15  N10 EHD  3335      -1.034  36.322 230.968  1.00 20.00    -0.353 N 
ATOM     16  H10 EHD  3335      -0.794  37.190 231.448  1.00  0.00     0.166 HD
HETATM   17  C9  EHD  3335      -0.649  35.107 231.403  1.00 20.00     0.068 A 
HETATM   18  C13 EHD  3335       0.113  34.838 232.518  1.00 20.00     0.065 A 
HETATM   19  C1  EHD  3335      -2.931  35.071 227.904  1.00 20.00     0.014 A 
HETATM   20  C2  EHD  3335      -3.367  36.279 227.397  1.00 20.00     0.001 A 
HETATM   21  C3  EHD  3335      -3.031  37.492 228.061  1.00 20.00     0.002 A 
HETATM   22  C4  EHD  3335      -2.242  37.491 229.270  1.00 20.00     0.030 A 
ENDROOT
BRANCH   8  23
HETATM   23  C25 EHD  3335       1.319  36.188 236.928  1.00 20.00     0.043 C 
HETATM   24  C31 EHD  3335       0.813  37.636 237.269  1.00 20.00     0.009 C 
ENDBRANCH   8  23
BRANCH   8  25
HETATM   25  O24 EHD  3335       2.471  37.317 235.180  1.00 20.00    -0.380 OA
ATOM     26  H24 EHD  3335       2.586  37.319 234.238  1.00  0.00     0.211 HD
ENDBRANCH   8  25
BRANCH   5  27
HETATM   27  O23 EHD  3335       4.561  36.126 236.184  1.00 20.00    -0.368 OA
ATOM     28  H23 EHD  3335       4.478  36.940 236.666  1.00  0.00     0.212 HD
ENDBRANCH   5  27
BRANCH   1  29
HETATM   29  O18 EHD  3335       1.255  31.634 233.692  1.00 20.00    -0.345 OA
ATOM     30  H18 EHD  3335       0.599  31.035 233.353  1.00  0.00     0.219 HD
ENDBRANCH   1  29
TORSDOF 4
ENDMDL
MODEL 5
REMARK VINA RESULT:      -7.0      3.709      5.055
REMARK  4 active torsions:
REMARK  status: ('A' for Active; 'I' for Inactive)
REMARK    1  A    between atoms: C14_3  and  O18_1 
REMARK    2  A    between atoms: C20_7  and  O23_8 
REMARK    3  A    between atoms: C21_12  and  C25_15 
REMARK    4  A    between atoms: C21_12  and  O24_13 
ROOT
HETATM    1  C14 EHD  3335       1.387  36.432 235.731  1.00 20.00     0.152 A 
HETATM    2  C15 EHD  3335       2.227  35.929 236.669  1.00 20.00     0.026 A 
HETATM    3  C19 EHD  3335       3.481  36.704 236.928  1.00 20.00     0.214 C 
HETATM    4  O22 EHD  3335       3.772  36.656 238.357  1.00 20.00    -0.353 OA
HETATM    5  C20 EHD  3335       3.564  35.501 239.138  1.00 20.00     0.296 C 
HETATM    6  C16 EHD  3335       1.990  34.712 237.431  1.00 20.00    -0.004 A 
HETATM    7  C17 EHD  3335       0.757  34.087 237.098  1.00 20.00     0.043 A 
HETATM    8  C21 EHD  3335       3.008  34.253 238.491  1.00 20.00     0.135 C 
HETATM    9  N12 EHD  3335       0.205  35.760 235.464  1.00 20.00    -0.321 N 
HETATM   10  C11 EHD  3335      -0.784  36.197 234.496  1.00 20.00     0.172 A 
HETATM   11  C8  EHD  3335      -1.828  35.139 234.654  1.00 20.00    -0.010 A 
HETATM   12  C7  EHD  3335      -3.020  34.915 234.088  1.00 20.00     0.025 A 
HETATM   13  C6  EHD  3335      -3.799  33.809 234.452  1.00 20.00    -0.009 A 
HETATM   14  C5  EHD  3335      -3.283  32.911 235.466  1.00 20.00     0.043 A 
HETATM   15  N10 EHD  3335      -1.998  33.102 236.113  1.00 20.00    -0.353 N 
ATOM     16  H10 EHD  3335      -1.631  32.472 236.826  1.00  0.00     0.166 HD
HETATM   17  C9  EHD  3335      -1.336  34.193 235.681  1.00 20.00     0.068 A 
HETATM   18  C13 EHD  3335      -0.107  34.635 236.119  1.00 20.00     0.065 A 
HETATM   19  C1  EHD  3335      -5.045  33.562 233.863  1.00 20.00     0.014 A 
HETATM   20  C2  EHD  3335      -5.781  32.460 234.250  1.00 20.00     0.001 A 
HETATM   21  C3  EHD  3335      -5.275  31.580 235.248  1.00 20.00     0.002 A 
HETATM   22  C4  EHD  3335      -3.992  31.809 235.868  1.00 20.00     0.030 A 
ENDROOT
BRANCH   8  23
HETATM   23  C25 EHD  3335       4.157  33.422 237.870  1.00 20.00     0.043 C 
HETATM   24  C31 EHD  3335       4.761  32.330 238.826  1.00 20.00     0.009 C 
ENDBRANCH   8  23
BRANCH   8  25
HETATM   25  O24 EHD  3335       2.413  33.569 239.480  1.00 20.00    -0.380 OA
ATOM     26  H24 EHD  3335       2.966  32.865 239.799  1.00  0.00     0.211 HD
ENDBRANCH   8  25
BRANCH   5  27
HETATM   27  O23 EHD  3335       3.840  35.538 240.418  1.00 20.00    -0.368 OA
ATOM     28  H23 EHD  3335       3.340  34.994 241.015  1.00  0.00     0.212 HD
ENDBRANCH   5  27
BRANCH   1  29
HETATM   29  O18 EHD  3335       1.679  37.580 235.082  1.00 20.00    -0.345 OA
ATOM     30  H18 EHD  3335       2.218  38.243 235.500  1.00  0.00     0.219 HD
ENDBRANCH   1  29
TORSDOF 4
ENDMDL
MODEL 6
REMARK VINA RESULT:      -6.8      4.671      6.248
REMARK  4 active torsions:
REMARK  status: ('A' for Active; 'I' for Inactive)
REMARK    1  A    between atoms: C14_3  and  O18_1 
REMARK    2  A    between atoms: C20_7  and  O23_8 
REMARK    3  A    between atoms: C21_12  and  C25_15 
REMARK    4  A    between atoms: C21_12  and  O24_13 
ROOT
HETATM    1  C14 EHD  3335      -2.189  34.147 232.499  1.00 20.00     0.152 A 
HETATM    2  C15 EHD  3335      -1.347  34.556 233.480  1.00 20.00     0.026 A 
HETATM    3  C19 EHD  3335      -1.102  33.590 234.596  1.00 20.00     0.214 C 
HETATM    4  O22 EHD  3335       0.299  33.685 234.995  1.00 20.00    -0.353 OA
HETATM    5  C20 EHD  3335       0.994  34.910 235.048  1.00 20.00     0.296 C 
HETATM    6  C16 EHD  3335      -0.674  35.846 233.513  1.00 20.00    -0.004 A 
HETATM    7  C17 EHD  3335      -0.983  36.655 232.386  1.00 20.00     0.043 A 
HETATM    8  C21 EHD  3335       0.283  36.189 234.670  1.00 20.00     0.135 C 
HETATM    9  N12 EHD  3335      -2.439  34.998 231.435  1.00 20.00    -0.321 N 
HETATM   10  C11 EHD  3335      -3.307  34.678 230.317  1.00 20.00     0.172 A 
HETATM   11  C8  EHD  3335      -3.174  35.913 229.486  1.00 20.00    -0.010 A 
HETATM   12  C7  EHD  3335      -3.684  36.305 228.313  1.00 20.00     0.025 A 
HETATM   13  C6  EHD  3335      -3.365  37.555 227.765  1.00 20.00    -0.009 A 
HETATM   14  C5  EHD  3335      -2.460  38.415 228.501  1.00 20.00     0.043 A 
HETATM   15  N10 EHD  3335      -1.878  38.044 229.778  1.00 20.00    -0.353 N 
ATOM     16  H10 EHD  3335      -1.242  38.647 230.300  1.00  0.00     0.166 HD
HETATM   17  C9  EHD  3335      -2.258  36.825 230.207  1.00 20.00     0.068 A 
HETATM   18  C13 EHD  3335      -1.860  36.204 231.370  1.00 20.00     0.065 A 
HETATM   19  C1  EHD  3335      -3.897  37.978 226.541  1.00 20.00     0.014 A 
HETATM   20  C2  EHD  3335      -3.558  39.218 226.037  1.00 20.00     0.001 A 
HETATM   21  C3  EHD  3335      -2.667  40.060 226.759  1.00 20.00     0.002 A 
HETATM   22  C4  EHD  3335      -2.108  39.651 228.025  1.00 20.00     0.030 A 
ENDROOT
BRANCH   8  23
HETATM   23  C25 EHD  3335      -0.471  36.757 235.897  1.00 20.00     0.043 C 
HETATM   24  C31 EHD  3335       0.391  37.701 236.812  1.00 20.00     0.009 C 
ENDBRANCH   8  23
BRANCH   8  25
HETATM   25  O24 EHD  3335       1.246  37.036 234.276  1.00 20.00    -0.380 OA
ATOM     26  H24 EHD  3335       0.899  37.902 234.103  1.00  0.00     0.211 HD
ENDBRANCH   8  25
BRANCH   5  27
HETATM   27  O23 EHD  3335       2.254  34.914 235.406  1.00 20.00    -0.368 OA
ATOM     28  H23 EHD  3335       2.493  34.587 236.265  1.00  0.00     0.212 HD
ENDBRANCH   5  27
BRANCH   1  29
HETATM   29  O18 EHD  3335      -2.758  32.922 232.540  1.00 20.00    -0.345 OA
ATOM     30  H18 EHD  3335      -2.239  32.160 232.770  1.00  0.00     0.219 HD
ENDBRANCH   1  29
TORSDOF 4
ENDMDL
MODEL 7
REMARK VINA RESULT:      -6.6      3.056      7.256
REMARK  4 active torsions:
REMARK  status: ('A' for Active; 'I' for Inactive)
REMARK    1  A    between atoms: C14_3  and  O18_1 
REMARK    2  A    between atoms: C20_7  and  O23_8 
REMARK    3  A    between atoms: C21_12  and  C25_15 
REMARK    4  A    between atoms: C21_12  and  O24_13 
ROOT
HETATM    1  C14 EHD  3335       1.113  31.487 233.581  1.00 20.00     0.152 A 
HETATM    2  C15 EHD  3335       0.626  32.043 232.445  1.00 20.00     0.026 A 
HETATM    3  C19 EHD  3335       0.013  31.108 231.451  1.00 20.00     0.214 C 
HETATM    4  O22 EHD  3335      -1.147  31.760 230.851  1.00 20.00    -0.353 OA
HETATM    5  C20 EHD  3335      -1.168  33.132 230.530  1.00 20.00     0.296 C 
HETATM    6  C16 EHD  3335       0.654  33.466 232.137  1.00 20.00    -0.004 A 
HETATM    7  C17 EHD  3335       1.247  34.239 233.173  1.00 20.00     0.043 A 
HETATM    8  C21 EHD  3335       0.045  33.985 230.821  1.00 20.00     0.135 C 
HETATM    9  N12 EHD  3335       1.678  32.312 234.540  1.00 20.00    -0.321 N 
HETATM   10  C11 EHD  3335       2.223  31.846 235.802  1.00 20.00     0.172 A 
HETATM   11  C8  EHD  3335       2.649  33.136 236.425  1.00 20.00    -0.010 A 
HETATM   12  C7  EHD  3335       3.216  33.463 237.592  1.00 20.00     0.025 A 
HETATM   13  C6  EHD  3335       3.503  34.798 237.910  1.00 20.00    -0.009 A 
HETATM   14  C5  EHD  3335       3.162  35.821 236.941  1.00 20.00     0.043 A 
HETATM   15  N10 EHD  3335       2.547  35.525 235.660  1.00 20.00    -0.353 N 
ATOM     16  H10 EHD  3335       2.307  36.243 234.975  1.00  0.00     0.166 HD
HETATM   17  C9  EHD  3335       2.323  34.212 235.462  1.00 20.00     0.068 A 
HETATM   18  C13 EHD  3335       1.743  33.636 234.354  1.00 20.00     0.065 A 
HETATM   19  C1  EHD  3335       4.102  35.152 239.124  1.00 20.00     0.014 A 
HETATM   20  C2  EHD  3335       4.368  36.479 239.398  1.00 20.00     0.001 A 
HETATM   21  C3  EHD  3335       4.030  37.483 238.448  1.00 20.00     0.002 A 
HETATM   22  C4  EHD  3335       3.417  37.145 237.186  1.00 20.00     0.030 A 
ENDROOT
BRANCH   8  23
HETATM   23  C25 EHD  3335       1.048  33.898 229.645  1.00 20.00     0.043 C 
HETATM   24  C31 EHD  3335       1.657  35.279 229.205  1.00 20.00     0.009 C 
ENDBRANCH   8  23
BRANCH   8  25
HETATM   25  O24 EHD  3335      -0.417  35.238 230.955  1.00 20.00    -0.380 OA
ATOM     26  H24 EHD  3335      -1.323  35.245 231.241  1.00  0.00     0.211 HD
ENDBRANCH   8  25
BRANCH   5  27
HETATM   27  O23 EHD  3335      -2.250  33.648 230.003  1.00 20.00    -0.368 OA
ATOM     28  H23 EHD  3335      -3.034  33.723 230.534  1.00  0.00     0.212 HD
ENDBRANCH   5  27
BRANCH   1  29
HETATM   29  O18 EHD  3335       1.029  30.155 233.792  1.00 20.00    -0.345 OA
ATOM     30  H18 EHD  3335       1.688  29.571 233.433  1.00  0.00     0.219 HD
ENDBRANCH   1  29
TORSDOF 4
ENDMDL
MODEL 8
REMARK VINA RESULT:      -6.6      2.896      4.251
REMARK  4 active torsions:
REMARK  status: ('A' for Active; 'I' for Inactive)
REMARK    1  A    between atoms: C14_3  and  O18_1 
REMARK    2  A    between atoms: C20_7  and  O23_8 
REMARK    3  A    between atoms: C21_12  and  C25_15 
REMARK    4  A    between atoms: C21_12  and  O24_13 
ROOT
HETATM    1  C14 EHD  3335      -1.595  35.425 233.893  1.00 20.00     0.152 A 
HETATM    2  C15 EHD  3335      -0.639  35.602 234.838  1.00 20.00     0.026 A 
HETATM    3  C19 EHD  3335      -1.115  35.795 236.243  1.00 20.00     0.214 C 
HETATM    4  O22 EHD  3335      -0.197  35.107 237.146  1.00 20.00    -0.353 OA
HETATM    5  C20 EHD  3335       1.198  35.088 236.943  1.00 20.00     0.296 C 
HETATM    6  C16 EHD  3335       0.794  35.608 234.581  1.00 20.00    -0.004 A 
HETATM    7  C17 EHD  3335       1.106  35.397 233.210  1.00 20.00     0.043 A 
HETATM    8  C21 EHD  3335       1.787  35.793 235.743  1.00 20.00     0.135 C 
HETATM    9  N12 EHD  3335      -1.206  35.227 232.579  1.00 20.00    -0.321 N 
HETATM   10  C11 EHD  3335      -2.125  35.015 231.476  1.00 20.00     0.172 A 
HETATM   11  C8  EHD  3335      -1.173  34.833 230.338  1.00 20.00    -0.010 A 
HETATM   12  C7  EHD  3335      -1.321  34.586 229.031  1.00 20.00     0.025 A 
HETATM   13  C6  EHD  3335      -0.209  34.459 228.187  1.00 20.00    -0.009 A 
HETATM   14  C5  EHD  3335       1.112  34.596 228.769  1.00 20.00     0.043 A 
HETATM   15  N10 EHD  3335       1.333  34.865 230.178  1.00 20.00    -0.353 N 
ATOM     16  H10 EHD  3335       2.261  34.963 230.590  1.00  0.00     0.166 HD
HETATM   17  C9  EHD  3335       0.194  34.971 230.889  1.00 20.00     0.068 A 
HETATM   18  C13 EHD  3335       0.090  35.209 232.242  1.00 20.00     0.065 A 
HETATM   19  C1  EHD  3335      -0.351  34.207 226.818  1.00 20.00     0.014 A 
HETATM   20  C2  EHD  3335       0.770  34.089 226.021  1.00 20.00     0.001 A 
HETATM   21  C3  EHD  3335       2.067  34.220 226.593  1.00 20.00     0.002 A 
HETATM   22  C4  EHD  3335       2.242  34.485 228.001  1.00 20.00     0.030 A 
ENDROOT
BRANCH   8  23
HETATM   23  C25 EHD  3335       2.025  37.286 236.071  1.00 20.00     0.043 C 
HETATM   24  C31 EHD  3335       3.093  37.545 237.195  1.00 20.00     0.009 C 
ENDBRANCH   8  23
BRANCH   8  25
HETATM   25  O24 EHD  3335       2.952  35.173 235.497  1.00 20.00    -0.380 OA
ATOM     26  H24 EHD  3335       3.329  35.456 234.672  1.00  0.00     0.211 HD
ENDBRANCH   8  25
BRANCH   5  27
HETATM   27  O23 EHD  3335       1.957  34.440 237.792  1.00 20.00    -0.368 OA
ATOM     28  H23 EHD  3335       1.667  33.600 238.126  1.00  0.00     0.212 HD
ENDBRANCH   5  27
BRANCH   1  29
HETATM   29  O18 EHD  3335      -2.904  35.416 234.224  1.00 20.00    -0.345 OA
ATOM     30  H18 EHD  3335      -3.204  35.867 235.006  1.00  0.00     0.219 HD
ENDBRANCH   1  29
TORSDOF 4
ENDMDL
MODEL 9
REMARK VINA RESULT:      -6.6      3.930      4.053
REMARK  4 active torsions:
REMARK  status: ('A' for Active; 'I' for Inactive)
REMARK    1  A    between atoms: C14_3  and  O18_1 
REMARK    2  A    between atoms: C20_7  and  O23_8 
REMARK    3  A    between atoms: C21_12  and  C25_15 
REMARK    4  A    between atoms: C21_12  and  O24_13 
ROOT
HETATM    1  C14 EHD  3335       0.493  33.229 237.894  1.00 20.00     0.152 A 
HETATM    2  C15 EHD  3335       1.389  34.198 237.588  1.00 20.00     0.026 A 
HETATM    3  C19 EHD  3335       2.616  34.268 238.442  1.00 20.00     0.214 C 
HETATM    4  O22 EHD  3335       3.755  34.606 237.594  1.00 20.00    -0.353 OA
HETATM    5  C20 EHD  3335       3.666  35.527 236.531  1.00 20.00     0.296 C 
HETATM    6  C16 EHD  3335       1.243  35.153 236.499  1.00 20.00    -0.004 A 
HETATM    7  C17 EHD  3335       0.043  34.963 235.761  1.00 20.00     0.043 A 
HETATM    8  C21 EHD  3335       2.344  36.196 236.231  1.00 20.00     0.135 C 
HETATM    9  N12 EHD  3335      -0.654  33.112 237.125  1.00 20.00    -0.321 N 
HETATM   10  C11 EHD  3335      -1.685  32.113 237.338  1.00 20.00     0.172 A 
HETATM   11  C8  EHD  3335      -2.631  32.435 236.227  1.00 20.00    -0.010 A 
HETATM   12  C7  EHD  3335      -3.790  31.911 235.811  1.00 20.00     0.025 A 
HETATM   13  C6  EHD  3335      -4.467  32.437 234.703  1.00 20.00    -0.009 A 
HETATM   14  C5  EHD  3335      -3.875  33.565 234.010  1.00 20.00     0.043 A 
HETATM   15  N10 EHD  3335      -2.621  34.174 234.416  1.00 20.00    -0.353 N 
ATOM     16  H10 EHD  3335      -2.202  34.968 233.932  1.00  0.00     0.166 HD
HETATM   17  C9  EHD  3335      -2.065  33.589 235.494  1.00 20.00     0.068 A 
HETATM   18  C13 EHD  3335      -0.876  33.939 236.096  1.00 20.00     0.065 A 
HETATM   19  C1  EHD  3335      -5.683  31.902 234.262  1.00 20.00     0.014 A 
HETATM   20  C2  EHD  3335      -6.319  32.451 233.166  1.00 20.00     0.001 A 
HETATM   21  C3  EHD  3335      -5.734  33.555 232.484  1.00 20.00     0.002 A 
HETATM   22  C4  EHD  3335      -4.484  34.130 232.920  1.00 20.00     0.030 A 
ENDROOT
BRANCH   8  23
HETATM   23  C25 EHD  3335       2.177  37.455 237.114  1.00 20.00     0.043 C 
HETATM   24  C31 EHD  3335       0.687  37.909 237.326  1.00 20.00     0.009 C 
ENDBRANCH   8  23
BRANCH   8  25
HETATM   25  O24 EHD  3335       2.396  36.533 234.933  1.00 20.00    -0.380 OA
ATOM     26  H24 EHD  3335       1.808  37.253 234.738  1.00  0.00     0.211 HD
ENDBRANCH   8  25
BRANCH   5  27
HETATM   27  O23 EHD  3335       4.730  35.772 235.807  1.00 20.00    -0.368 OA
ATOM     28  H23 EHD  3335       5.546  35.992 236.242  1.00  0.00     0.212 HD
ENDBRANCH   5  27
BRANCH   1  29
HETATM   29  O18 EHD  3335       0.718  32.372 238.915  1.00 20.00    -0.345 OA
ATOM     30  H18 EHD  3335       1.540  31.898 238.969  1.00  0.00     0.219 HD
ENDBRANCH   1  29
TORSDOF 4
ENDMDL
