MODEL 1
REMARK VINA RESULT:      -6.7      0.000      0.000
REMARK  5 active torsions:
REMARK  status: ('A' for Active; 'I' for Inactive)
REMARK    1  A    between atoms: C1_1  and  C21_25 
REMARK    2  A    between atoms: C13_15  and  N1_14 
REMARK    3  A    between atoms: C13_15  and  C14_16 
REMARK    4  A    between atoms: C14_16  and  C15_17 
REMARK    5  A    between atoms: C15_17  and  N2_18 
ROOT
HETATM    1  C1  TFP  7194       3.318  32.419 235.741  1.00 20.00     0.050 A 
HETATM    2  C2  TFP  7194       4.160  33.035 236.621  1.00 20.00     0.017 A 
HETATM    3  C3  TFP  7194       3.984  34.345 236.943  1.00 20.00     0.022 A 
HETATM    4  C4  TFP  7194       2.933  35.057 236.361  1.00 20.00     0.032 A 
HETATM    5  C5  TFP  7194       2.075  34.417 235.459  1.00 20.00     0.053 A 
HETATM    6  C6  TFP  7194       2.285  33.077 235.156  1.00 20.00     0.047 A 
HETATM    7  S   TFP  7194       2.732  36.680 236.749  1.00 20.00    -0.086 SA
HETATM    8  C7  TFP  7194       1.032  36.914 236.469  1.00 20.00     0.032 A 
HETATM    9  C8  TFP  7194       0.365  37.929 237.162  1.00 20.00     0.021 A 
HETATM   10  C9  TFP  7194      -0.968  38.148 236.914  1.00 20.00     0.002 A 
HETATM   11  C10 TFP  7194      -1.659  37.387 235.997  1.00 20.00     0.002 A 
HETATM   12  C11 TFP  7194      -1.036  36.383 235.302  1.00 20.00     0.031 A 
HETATM   13  C12 TFP  7194       0.325  36.130 235.531  1.00 20.00     0.052 A 
HETATM   14  N1  TFP  7194       1.019  35.114 234.857  1.00 20.00    -0.345 N 
ENDROOT
BRANCH  14  15
HETATM   15  C13 TFP  7194       0.391  34.578 233.674  1.00 20.00     0.131 C 
BRANCH  15  16
HETATM   16  C14 TFP  7194       1.170  35.243 232.578  1.00 20.00     0.050 C 
BRANCH  16  17
HETATM   17  C15 TFP  7194       0.482  35.111 231.253  1.00 20.00     0.274 C 
BRANCH  17  18
HETATM   18  N2  TFP  7194       1.250  34.261 230.353  1.00 20.00     0.091 N 
HETATM   19  C16 TFP  7194       0.307  33.266 229.853  1.00 20.00     0.302 C 
HETATM   20  C17 TFP  7194       0.779  32.634 228.556  1.00 20.00     0.302 C 
HETATM   21  N3  TFP  7194       0.922  33.617 227.482  1.00 20.00     0.087 N 
HETATM   22  C18 TFP  7194       0.881  34.980 228.013  1.00 20.00     0.302 C 
HETATM   23  C20 TFP  7194       2.256  33.429 226.910  1.00 20.00     0.310 C 
HETATM   24  C19 TFP  7194       1.720  35.127 229.270  1.00 20.00     0.302 C 
ENDBRANCH  17  18
ENDBRANCH  16  17
ENDBRANCH  15  16
ENDBRANCH  14  15
BRANCH   1  25
HETATM   25  C21 TFP  7194       3.497  30.956 235.376  1.00 20.00     0.417 C 
HETATM   26  F1  TFP  7194       4.535  30.718 234.705  1.00 20.00    -0.166 F 
HETATM   27  F2  TFP  7194       2.588  30.368 234.721  1.00 20.00    -0.166 F 
HETATM   28  F3  TFP  7194       3.608  30.129 236.330  1.00 20.00    -0.166 F 
ENDBRANCH   1  25
TORSDOF 5
ENDMDL
MODEL 2
REMARK VINA RESULT:      -6.7      3.638      6.806
REMARK  5 active torsions:
REMARK  status: ('A' for Active; 'I' for Inactive)
REMARK    1  A    between atoms: C1_1  and  C21_25 
REMARK    2  A    between atoms: C13_15  and  N1_14 
REMARK    3  A    between atoms: C13_15  and  C14_16 
REMARK    4  A    between atoms: C14_16  and  C15_17 
REMARK    5  A    between atoms: C15_17  and  N2_18 
ROOT
HETATM    1  C1  TFP  7194       0.941  33.908 231.001  1.00 20.00     0.050 A 
HETATM    2  C2  TFP  7194       0.908  32.551 231.139  1.00 20.00     0.017 A 
HETATM    3  C3  TFP  7194       0.638  31.987 232.347  1.00 20.00     0.022 A 
HETATM    4  C4  TFP  7194       0.398  32.811 233.448  1.00 20.00     0.032 A 
HETATM    5  C5  TFP  7194       0.436  34.202 233.298  1.00 20.00     0.053 A 
HETATM    6  C6  TFP  7194       0.713  34.741 232.047  1.00 20.00     0.047 A 
HETATM    7  S   TFP  7194       0.084  32.107 234.942  1.00 20.00    -0.086 SA
HETATM    8  C7  TFP  7194      -0.847  33.341 235.738  1.00 20.00     0.032 A 
HETATM    9  C8  TFP  7194      -1.740  32.970 236.748  1.00 20.00     0.021 A 
HETATM   10  C9  TFP  7194      -2.448  33.944 237.410  1.00 20.00     0.002 A 
HETATM   11  C10 TFP  7194      -2.293  35.276 237.098  1.00 20.00     0.002 A 
HETATM   12  C11 TFP  7194      -1.428  35.675 236.112  1.00 20.00     0.031 A 
HETATM   13  C12 TFP  7194      -0.690  34.707 235.414  1.00 20.00     0.052 A 
HETATM   14  N1  TFP  7194       0.207  35.048 234.391  1.00 20.00    -0.345 N 
ENDROOT
BRANCH  14  15
HETATM   15  C13 TFP  7194       0.613  36.431 234.322  1.00 20.00     0.131 C 
BRANCH  15  16
HETATM   16  C14 TFP  7194       1.857  36.433 235.161  1.00 20.00     0.050 C 
BRANCH  16  17
HETATM   17  C15 TFP  7194       1.841  37.542 236.169  1.00 20.00     0.274 C 
BRANCH  17  18
HETATM   18  N2  TFP  7194       2.094  37.028 237.508  1.00 20.00     0.091 N 
HETATM   19  C16 TFP  7194       2.229  35.583 237.355  1.00 20.00     0.302 C 
HETATM   20  C17 TFP  7194       2.978  34.953 238.516  1.00 20.00     0.302 C 
HETATM   21  N3  TFP  7194       4.344  35.467 238.634  1.00 20.00     0.087 N 
HETATM   22  C18 TFP  7194       4.524  36.666 237.815  1.00 20.00     0.302 C 
HETATM   23  C20 TFP  7194       4.521  35.879 240.027  1.00 20.00     0.310 C 
HETATM   24  C19 TFP  7194       3.355  37.626 237.947  1.00 20.00     0.302 C 
ENDBRANCH  17  18
ENDBRANCH  16  17
ENDBRANCH  15  16
ENDBRANCH  14  15
BRANCH   1  25
HETATM   25  C21 TFP  7194       1.234  34.553 229.658  1.00 20.00     0.417 C 
HETATM   26  F1  TFP  7194       2.220  35.336 229.669  1.00 20.00    -0.166 F 
HETATM   27  F2  TFP  7194       0.331  35.234 229.091  1.00 20.00    -0.166 F 
HETATM   28  F3  TFP  7194       1.524  33.783 228.694  1.00 20.00    -0.166 F 
ENDBRANCH   1  25
TORSDOF 5
ENDMDL
MODEL 3
REMARK VINA RESULT:      -6.6      3.635      6.280
REMARK  5 active torsions:
REMARK  status: ('A' for Active; 'I' for Inactive)
REMARK    1  A    between atoms: C1_1  and  C21_25 
REMARK    2  A    between atoms: C13_15  and  N1_14 
REMARK    3  A    between atoms: C13_15  and  C14_16 
REMARK    4  A    between atoms: C14_16  and  C15_17 
REMARK    5  A    between atoms: C15_17  and  N2_18 
ROOT
HETATM    1  C1  TFP  7194       3.597  35.793 237.527  1.00 20.00     0.050 A 
HETATM    2  C2  TFP  7194       3.842  34.540 238.010  1.00 20.00     0.017 A 
HETATM    3  C3  TFP  7194       3.247  33.455 237.446  1.00 20.00     0.022 A 
HETATM    4  C4  TFP  7194       2.377  33.636 236.368  1.00 20.00     0.032 A 
HETATM    5  C5  TFP  7194       2.131  34.924 235.880  1.00 20.00     0.053 A 
HETATM    6  C6  TFP  7194       2.760  36.008 236.481  1.00 20.00     0.047 A 
HETATM    7  S   TFP  7194       1.630  32.292 235.688  1.00 20.00    -0.086 SA
HETATM    8  C7  TFP  7194       1.320  32.830 234.064  1.00 20.00     0.032 A 
HETATM    9  C8  TFP  7194       1.214  31.880 233.044  1.00 20.00     0.021 A 
HETATM   10  C9  TFP  7194       0.927  32.294 231.766  1.00 20.00     0.002 A 
HETATM   11  C10 TFP  7194       0.742  33.626 231.472  1.00 20.00     0.002 A 
HETATM   12  C11 TFP  7194       0.842  34.585 232.447  1.00 20.00     0.031 A 
HETATM   13  C12 TFP  7194       1.135  34.197 233.763  1.00 20.00     0.052 A 
HETATM   14  N1  TFP  7194       1.256  35.129 234.805  1.00 20.00    -0.345 N 
ENDROOT
BRANCH  14  15
HETATM   15  C13 TFP  7194       0.722  36.447 234.560  1.00 20.00     0.131 C 
BRANCH  15  16
HETATM   16  C14 TFP  7194      -0.477  36.471 235.461  1.00 20.00     0.050 C 
BRANCH  16  17
HETATM   17  C15 TFP  7194      -1.726  36.079 234.731  1.00 20.00     0.274 C 
BRANCH  17  18
HETATM   18  N2  TFP  7194      -2.562  35.220 235.558  1.00 20.00     0.091 N 
HETATM   19  C16 TFP  7194      -2.338  33.864 235.068  1.00 20.00     0.302 C 
HETATM   20  C17 TFP  7194      -2.712  32.816 236.100  1.00 20.00     0.302 C 
HETATM   21  N3  TFP  7194      -1.912  32.932 237.320  1.00 20.00     0.087 N 
HETATM   22  C18 TFP  7194      -1.193  34.206 237.354  1.00 20.00     0.302 C 
HETATM   23  C20 TFP  7194      -2.852  32.950 238.442  1.00 20.00     0.310 C 
HETATM   24  C19 TFP  7194      -2.074  35.368 236.929  1.00 20.00     0.302 C 
ENDBRANCH  17  18
ENDBRANCH  16  17
ENDBRANCH  15  16
ENDBRANCH  14  15
BRANCH   1  25
HETATM   25  C21 TFP  7194       4.259  37.014 238.141  1.00 20.00     0.417 C 
HETATM   26  F1  TFP  7194       4.362  37.992 237.355  1.00 20.00    -0.166 F 
HETATM   27  F2  TFP  7194       5.424  36.907 238.624  1.00 20.00    -0.166 F 
HETATM   28  F3  TFP  7194       3.688  37.543 239.142  1.00 20.00    -0.166 F 
ENDBRANCH   1  25
TORSDOF 5
ENDMDL
MODEL 4
REMARK VINA RESULT:      -6.5      3.242      4.671
REMARK  5 active torsions:
REMARK  status: ('A' for Active; 'I' for Inactive)
REMARK    1  A    between atoms: C1_1  and  C21_25 
REMARK    2  A    between atoms: C13_15  and  N1_14 
REMARK    3  A    between atoms: C13_15  and  C14_16 
REMARK    4  A    between atoms: C14_16  and  C15_17 
REMARK    5  A    between atoms: C15_17  and  N2_18 
ROOT
HETATM    1  C1  TFP  7194       4.185  36.113 238.873  1.00 20.00     0.050 A 
HETATM    2  C2  TFP  7194       4.155  37.322 238.240  1.00 20.00     0.017 A 
HETATM    3  C3  TFP  7194       3.203  37.589 237.307  1.00 20.00     0.022 A 
HETATM    4  C4  TFP  7194       2.255  36.611 236.998  1.00 20.00     0.032 A 
HETATM    5  C5  TFP  7194       2.294  35.373 237.650  1.00 20.00     0.053 A 
HETATM    6  C6  TFP  7194       3.281  35.138 238.600  1.00 20.00     0.047 A 
HETATM    7  S   TFP  7194       1.093  36.941 235.829  1.00 20.00    -0.086 SA
HETATM    8  C7  TFP  7194      -0.207  35.886 236.300  1.00 20.00     0.032 A 
HETATM    9  C8  TFP  7194      -1.516  36.224 235.944  1.00 20.00     0.021 A 
HETATM   10  C9  TFP  7194      -2.544  35.375 236.276  1.00 20.00     0.002 A 
HETATM   11  C10 TFP  7194      -2.308  34.199 236.952  1.00 20.00     0.002 A 
HETATM   12  C11 TFP  7194      -1.037  33.838 237.319  1.00 20.00     0.031 A 
HETATM   13  C12 TFP  7194       0.036  34.683 236.998  1.00 20.00     0.052 A 
HETATM   14  N1  TFP  7194       1.359  34.374 237.350  1.00 20.00    -0.345 N 
ENDROOT
BRANCH  14  15
HETATM   15  C13 TFP  7194       1.625  33.008 237.730  1.00 20.00     0.131 C 
BRANCH  15  16
HETATM   16  C14 TFP  7194       2.440  32.515 236.572  1.00 20.00     0.050 C 
BRANCH  16  17
HETATM   17  C15 TFP  7194       1.664  31.562 235.715  1.00 20.00     0.274 C 
BRANCH  17  18
HETATM   18  N2  TFP  7194       1.896  31.828 234.301  1.00 20.00     0.091 N 
HETATM   19  C16 TFP  7194       1.074  30.863 233.579  1.00 20.00     0.302 C 
HETATM   20  C17 TFP  7194       0.795  31.305 232.154  1.00 20.00     0.302 C 
HETATM   21  N3  TFP  7194       0.060  32.569 232.101  1.00 20.00     0.087 N 
HETATM   22  C18 TFP  7194       0.063  33.230 233.407  1.00 20.00     0.302 C 
HETATM   23  C20 TFP  7194       0.790  33.446 231.185  1.00 20.00     0.310 C 
HETATM   24  C19 TFP  7194       1.434  33.195 234.059  1.00 20.00     0.302 C 
ENDBRANCH  17  18
ENDBRANCH  16  17
ENDBRANCH  15  16
ENDBRANCH  14  15
BRANCH   1  25
HETATM   25  C21 TFP  7194       5.237  35.802 239.923  1.00 20.00     0.417 C 
HETATM   26  F1  TFP  7194       4.864  36.022 241.104  1.00 20.00    -0.166 F 
HETATM   27  F2  TFP  7194       6.360  36.381 239.860  1.00 20.00    -0.166 F 
HETATM   28  F3  TFP  7194       5.647  34.604 239.997  1.00 20.00    -0.166 F 
ENDBRANCH   1  25
TORSDOF 5
ENDMDL
MODEL 5
REMARK VINA RESULT:      -6.5      4.005      4.928
REMARK  5 active torsions:
REMARK  status: ('A' for Active; 'I' for Inactive)
REMARK    1  A    between atoms: C1_1  and  C21_25 
REMARK    2  A    between atoms: C13_15  and  N1_14 
REMARK    3  A    between atoms: C13_15  and  C14_16 
REMARK    4  A    between atoms: C14_16  and  C15_17 
REMARK    5  A    between atoms: C15_17  and  N2_18 
ROOT
HETATM    1  C1  TFP  7194      -2.286  32.062 238.902  1.00 20.00     0.050 A 
HETATM    2  C2  TFP  7194      -1.116  31.389 239.111  1.00 20.00     0.017 A 
HETATM    3  C3  TFP  7194       0.050  31.853 238.588  1.00 20.00     0.022 A 
HETATM    4  C4  TFP  7194       0.040  33.026 237.829  1.00 20.00     0.032 A 
HETATM    5  C5  TFP  7194      -1.164  33.709 237.620  1.00 20.00     0.053 A 
HETATM    6  C6  TFP  7194      -2.335  33.205 238.173  1.00 20.00     0.047 A 
HETATM    7  S   TFP  7194       1.482  33.584 237.169  1.00 20.00    -0.086 SA
HETATM    8  C7  TFP  7194       1.178  35.289 237.019  1.00 20.00     0.032 A 
HETATM    9  C8  TFP  7194       2.262  36.174 237.027  1.00 20.00     0.021 A 
HETATM   10  C9  TFP  7194       2.033  37.518 236.866  1.00 20.00     0.002 A 
HETATM   11  C10 TFP  7194       0.758  38.011 236.697  1.00 20.00     0.002 A 
HETATM   12  C11 TFP  7194      -0.327  37.173 236.688  1.00 20.00     0.031 A 
HETATM   13  C12 TFP  7194      -0.130  35.793 236.851  1.00 20.00     0.052 A 
HETATM   14  N1  TFP  7194      -1.198  34.883 236.856  1.00 20.00    -0.345 N 
ENDROOT
BRANCH  14  15
HETATM   15  C13 TFP  7194      -2.456  35.360 236.334  1.00 20.00     0.131 C 
BRANCH  15  16
HETATM   16  C14 TFP  7194      -2.507  34.700 234.988  1.00 20.00     0.050 C 
BRANCH  16  17
HETATM   17  C15 TFP  7194      -2.289  35.686 233.881  1.00 20.00     0.274 C 
BRANCH  17  18
HETATM   18  N2  TFP  7194      -0.926  35.600 233.373  1.00 20.00     0.091 N 
HETATM   19  C16 TFP  7194      -0.572  34.186 233.435  1.00 20.00     0.302 C 
HETATM   20  C17 TFP  7194       0.576  33.844 232.502  1.00 20.00     0.302 C 
HETATM   21  N3  TFP  7194       0.247  34.108 231.101  1.00 20.00     0.087 N 
HETATM   22  C18 TFP  7194      -0.966  34.919 230.993  1.00 20.00     0.302 C 
HETATM   23  C20 TFP  7194       1.340  34.913 230.554  1.00 20.00     0.310 C 
HETATM   24  C19 TFP  7194      -0.974  36.067 231.987  1.00 20.00     0.302 C 
ENDBRANCH  17  18
ENDBRANCH  16  17
ENDBRANCH  15  16
ENDBRANCH  14  15
BRANCH   1  25
HETATM   25  C21 TFP  7194      -3.595  31.561 239.486  1.00 20.00     0.417 C 
HETATM   26  F1  TFP  7194      -3.602  30.329 239.746  1.00 20.00    -0.166 F 
HETATM   27  F2  TFP  7194      -4.665  31.725 238.831  1.00 20.00    -0.166 F 
HETATM   28  F3  TFP  7194      -3.969  32.062 240.588  1.00 20.00    -0.166 F 
ENDBRANCH   1  25
TORSDOF 5
ENDMDL
MODEL 6
REMARK VINA RESULT:      -6.4      3.040      4.291
REMARK  5 active torsions:
REMARK  status: ('A' for Active; 'I' for Inactive)
REMARK    1  A    between atoms: C1_1  and  C21_25 
REMARK    2  A    between atoms: C13_15  and  N1_14 
REMARK    3  A    between atoms: C13_15  and  C14_16 
REMARK    4  A    between atoms: C14_16  and  C15_17 
REMARK    5  A    between atoms: C15_17  and  N2_18 
ROOT
HETATM    1  C1  TFP  7194       2.452  36.659 236.844  1.00 20.00     0.050 A 
HETATM    2  C2  TFP  7194       1.576  37.535 237.418  1.00 20.00     0.017 A 
HETATM    3  C3  TFP  7194       0.266  37.539 237.052  1.00 20.00     0.022 A 
HETATM    4  C4  TFP  7194      -0.175  36.641 236.078  1.00 20.00     0.032 A 
HETATM    5  C5  TFP  7194       0.731  35.748 235.494  1.00 20.00     0.053 A 
HETATM    6  C6  TFP  7194       2.061  35.771 235.896  1.00 20.00     0.047 A 
HETATM    7  S   TFP  7194      -1.791  36.665 235.617  1.00 20.00    -0.086 SA
HETATM    8  C7  TFP  7194      -2.034  35.039 235.054  1.00 20.00     0.032 A 
HETATM    9  C8  TFP  7194      -3.322  34.494 235.092  1.00 20.00     0.021 A 
HETATM   10  C9  TFP  7194      -3.529  33.225 234.610  1.00 20.00     0.002 A 
HETATM   11  C10 TFP  7194      -2.494  32.479 234.091  1.00 20.00     0.002 A 
HETATM   12  C11 TFP  7194      -1.219  32.981 234.041  1.00 20.00     0.031 A 
HETATM   13  C12 TFP  7194      -0.971  34.274 234.526  1.00 20.00     0.052 A 
HETATM   14  N1  TFP  7194       0.312  34.844 234.509  1.00 20.00    -0.345 N 
ENDROOT
BRANCH  14  15
HETATM   15  C13 TFP  7194       1.289  34.209 233.659  1.00 20.00     0.131 C 
BRANCH  15  16
HETATM   16  C14 TFP  7194       1.217  35.048 232.418  1.00 20.00     0.050 C 
BRANCH  16  17
HETATM   17  C15 TFP  7194       0.901  34.222 231.209  1.00 20.00     0.274 C 
BRANCH  17  18
HETATM   18  N2  TFP  7194      -0.402  34.578 230.664  1.00 20.00     0.091 N 
HETATM   19  C16 TFP  7194      -0.712  35.893 231.215  1.00 20.00     0.302 C 
HETATM   20  C17 TFP  7194      -1.752  36.626 230.388  1.00 20.00     0.302 C 
HETATM   21  N3  TFP  7194      -1.298  36.869 229.018  1.00 20.00     0.087 N 
HETATM   22  C18 TFP  7194      -0.108  36.073 228.714  1.00 20.00     0.302 C 
HETATM   23  C20 TFP  7194      -2.360  36.394 228.130  1.00 20.00     0.310 C 
HETATM   24  C19 TFP  7194      -0.237  34.644 229.212  1.00 20.00     0.302 C 
ENDBRANCH  17  18
ENDBRANCH  16  17
ENDBRANCH  15  16
ENDBRANCH  14  15
BRANCH   1  25
HETATM   25  C21 TFP  7194       3.916  36.637 237.246  1.00 20.00     0.417 C 
HETATM   26  F1  TFP  7194       4.444  37.777 237.327  1.00 20.00    -0.166 F 
HETATM   27  F2  TFP  7194       4.740  35.985 236.540  1.00 20.00    -0.166 F 
HETATM   28  F3  TFP  7194       4.200  36.137 238.377  1.00 20.00    -0.166 F 
ENDBRANCH   1  25
TORSDOF 5
ENDMDL
MODEL 7
REMARK VINA RESULT:      -6.3      4.103      7.334
REMARK  5 active torsions:
REMARK  status: ('A' for Active; 'I' for Inactive)
REMARK    1  A    between atoms: C1_1  and  C21_25 
REMARK    2  A    between atoms: C13_15  and  N1_14 
REMARK    3  A    between atoms: C13_15  and  C14_16 
REMARK    4  A    between atoms: C14_16  and  C15_17 
REMARK    5  A    between atoms: C15_17  and  N2_18 
ROOT
HETATM    1  C1  TFP  7194       1.093  34.548 232.760  1.00 20.00     0.050 A 
HETATM    2  C2  TFP  7194       0.597  33.332 233.132  1.00 20.00     0.017 A 
HETATM    3  C3  TFP  7194       0.243  32.414 232.193  1.00 20.00     0.022 A 
HETATM    4  C4  TFP  7194       0.387  32.730 230.840  1.00 20.00     0.032 A 
HETATM    5  C5  TFP  7194       0.896  33.980 230.467  1.00 20.00     0.053 A 
HETATM    6  C6  TFP  7194       1.249  34.890 231.456  1.00 20.00     0.047 A 
HETATM    7  S   TFP  7194      -0.071  31.598 229.684  1.00 20.00    -0.086 SA
HETATM    8  C7  TFP  7194       0.925  32.039 228.329  1.00 20.00     0.032 A 
HETATM    9  C8  TFP  7194       1.250  31.062 227.382  1.00 20.00     0.021 A 
HETATM   10  C9  TFP  7194       2.000  31.412 226.286  1.00 20.00     0.002 A 
HETATM   11  C10 TFP  7194       2.438  32.706 226.103  1.00 20.00     0.002 A 
HETATM   12  C11 TFP  7194       2.140  33.687 227.013  1.00 20.00     0.031 A 
HETATM   13  C12 TFP  7194       1.376  33.364 228.145  1.00 20.00     0.052 A 
HETATM   14  N1  TFP  7194       1.042  34.320 229.116  1.00 20.00    -0.345 N 
ENDROOT
BRANCH  14  15
HETATM   15  C13 TFP  7194       1.197  35.704 228.741  1.00 20.00     0.131 C 
BRANCH  15  16
HETATM   16  C14 TFP  7194      -0.195  36.074 228.323  1.00 20.00     0.050 C 
BRANCH  16  17
HETATM   17  C15 TFP  7194      -0.635  37.364 228.944  1.00 20.00     0.274 C 
BRANCH  17  18
HETATM   18  N2  TFP  7194      -0.906  38.366 227.922  1.00 20.00     0.091 N 
HETATM   19  C16 TFP  7194      -1.926  39.241 228.490  1.00 20.00     0.302 C 
HETATM   20  C17 TFP  7194      -1.962  40.595 227.805  1.00 20.00     0.302 C 
HETATM   21  N3  TFP  7194      -0.698  41.319 227.944  1.00 20.00     0.087 N 
HETATM   22  C18 TFP  7194       0.361  40.432 228.425  1.00 20.00     0.302 C 
HETATM   23  C20 TFP  7194      -0.307  41.750 226.601  1.00 20.00     0.310 C 
HETATM   24  C19 TFP  7194       0.348  39.090 227.714  1.00 20.00     0.302 C 
ENDBRANCH  17  18
ENDBRANCH  16  17
ENDBRANCH  15  16
ENDBRANCH  14  15
BRANCH   1  25
HETATM   25  C21 TFP  7194       1.500  35.580 233.796  1.00 20.00     0.417 C 
HETATM   26  F1  TFP  7194       0.540  36.254 234.254  1.00 20.00    -0.166 F 
HETATM   27  F2  TFP  7194       2.351  36.464 233.485  1.00 20.00    -0.166 F 
HETATM   28  F3  TFP  7194       2.049  35.154 234.856  1.00 20.00    -0.166 F 
ENDBRANCH   1  25
TORSDOF 5
ENDMDL
MODEL 8
REMARK VINA RESULT:      -6.3      1.166      1.723
REMARK  5 active torsions:
REMARK  status: ('A' for Active; 'I' for Inactive)
REMARK    1  A    between atoms: C1_1  and  C21_25 
REMARK    2  A    between atoms: C13_15  and  N1_14 
REMARK    3  A    between atoms: C13_15  and  C14_16 
REMARK    4  A    between atoms: C14_16  and  C15_17 
REMARK    5  A    between atoms: C15_17  and  N2_18 
ROOT
HETATM    1  C1  TFP  7194       3.392  32.529 235.799  1.00 20.00     0.050 A 
HETATM    2  C2  TFP  7194       4.204  33.179 236.682  1.00 20.00     0.017 A 
HETATM    3  C3  TFP  7194       3.986  34.486 236.987  1.00 20.00     0.022 A 
HETATM    4  C4  TFP  7194       2.922  35.161 236.384  1.00 20.00     0.032 A 
HETATM    5  C5  TFP  7194       2.095  34.486 235.478  1.00 20.00     0.053 A 
HETATM    6  C6  TFP  7194       2.348  33.150 235.193  1.00 20.00     0.047 A 
HETATM    7  S   TFP  7194       2.669  36.781 236.751  1.00 20.00    -0.086 SA
HETATM    8  C7  TFP  7194       0.968  36.963 236.446  1.00 20.00     0.032 A 
HETATM    9  C8  TFP  7194       0.262  37.965 237.119  1.00 20.00     0.021 A 
HETATM   10  C9  TFP  7194      -1.074  38.143 236.852  1.00 20.00     0.002 A 
HETATM   11  C10 TFP  7194      -1.730  37.352 235.934  1.00 20.00     0.002 A 
HETATM   12  C11 TFP  7194      -1.069  36.358 235.259  1.00 20.00     0.031 A 
HETATM   13  C12 TFP  7194       0.295  36.149 235.508  1.00 20.00     0.052 A 
HETATM   14  N1  TFP  7194       1.027  35.145 234.855  1.00 20.00    -0.345 N 
ENDROOT
BRANCH  14  15
HETATM   15  C13 TFP  7194       0.431  34.578 233.670  1.00 20.00     0.131 C 
BRANCH  15  16
HETATM   16  C14 TFP  7194       1.038  35.415 232.583  1.00 20.00     0.050 C 
BRANCH  16  17
HETATM   17  C15 TFP  7194       1.076  34.681 231.277  1.00 20.00     0.274 C 
BRANCH  17  18
HETATM   18  N2  TFP  7194      -0.255  34.602 230.688  1.00 20.00     0.091 N 
HETATM   19  C16 TFP  7194      -0.700  35.983 230.535  1.00 20.00     0.302 C 
HETATM   20  C17 TFP  7194      -1.805  36.115 229.504  1.00 20.00     0.302 C 
HETATM   21  N3  TFP  7194      -1.371  35.690 228.172  1.00 20.00     0.087 N 
HETATM   22  C18 TFP  7194      -0.106  34.960 228.243  1.00 20.00     0.302 C 
HETATM   23  C20 TFP  7194      -2.375  34.744 227.682  1.00 20.00     0.310 C 
HETATM   24  C19 TFP  7194      -0.090  33.958 229.385  1.00 20.00     0.302 C 
ENDBRANCH  17  18
ENDBRANCH  16  17
ENDBRANCH  15  16
ENDBRANCH  14  15
BRANCH   1  25
HETATM   25  C21 TFP  7194       3.618  31.068 235.453  1.00 20.00     0.417 C 
HETATM   26  F1  TFP  7194       2.680  30.545 234.796  1.00 20.00    -0.166 F 
HETATM   27  F2  TFP  7194       3.817  30.237 236.386  1.00 20.00    -0.166 F 
HETATM   28  F3  TFP  7194       4.626  30.790 234.735  1.00 20.00    -0.166 F 
ENDBRANCH   1  25
TORSDOF 5
ENDMDL
MODEL 9
REMARK VINA RESULT:      -6.2      3.817      5.259
REMARK  5 active torsions:
REMARK  status: ('A' for Active; 'I' for Inactive)
REMARK    1  A    between atoms: C1_1  and  C21_25 
REMARK    2  A    between atoms: C13_15  and  N1_14 
REMARK    3  A    between atoms: C13_15  and  C14_16 
REMARK    4  A    between atoms: C14_16  and  C15_17 
REMARK    5  A    between atoms: C15_17  and  N2_18 
ROOT
HETATM    1  C1  TFP  7194       2.548  36.729 237.591  1.00 20.00     0.050 A 
HETATM    2  C2  TFP  7194       1.565  37.537 237.098  1.00 20.00     0.017 A 
HETATM    3  C3  TFP  7194       0.361  37.018 236.739  1.00 20.00     0.022 A 
HETATM    4  C4  TFP  7194       0.140  35.646 236.875  1.00 20.00     0.032 A 
HETATM    5  C5  TFP  7194       1.155  34.824 237.380  1.00 20.00     0.053 A 
HETATM    6  C6  TFP  7194       2.371  35.392 237.739  1.00 20.00     0.047 A 
HETATM    7  S   TFP  7194      -1.345  35.007 236.411  1.00 20.00    -0.086 SA
HETATM    8  C7  TFP  7194      -1.452  33.580 237.398  1.00 20.00     0.032 A 
HETATM    9  C8  TFP  7194      -2.715  33.071 237.718  1.00 20.00     0.021 A 
HETATM   10  C9  TFP  7194      -2.807  31.920 238.462  1.00 20.00     0.002 A 
HETATM   11  C10 TFP  7194      -1.680  31.258 238.897  1.00 20.00     0.002 A 
HETATM   12  C11 TFP  7194      -0.427  31.731 238.604  1.00 20.00     0.031 A 
HETATM   13  C12 TFP  7194      -0.296  32.905 237.847  1.00 20.00     0.052 A 
HETATM   14  N1  TFP  7194       0.958  33.444 237.518  1.00 20.00    -0.345 N 
ENDROOT
BRANCH  14  15
HETATM   15  C13 TFP  7194       2.096  32.571 237.670  1.00 20.00     0.131 C 
BRANCH  15  16
HETATM   16  C14 TFP  7194       2.640  32.520 236.273  1.00 20.00     0.050 C 
BRANCH  16  17
HETATM   17  C15 TFP  7194       1.805  31.646 235.386  1.00 20.00     0.274 C 
BRANCH  17  18
HETATM   18  N2  TFP  7194       1.935  32.048 233.992  1.00 20.00     0.091 N 
HETATM   19  C16 TFP  7194       1.269  31.005 233.219  1.00 20.00     0.302 C 
HETATM   20  C17 TFP  7194       0.865  31.488 231.838  1.00 20.00     0.302 C 
HETATM   21  N3  TFP  7194      -0.084  32.600 231.898  1.00 20.00     0.087 N 
HETATM   22  C18 TFP  7194      -0.149  33.159 233.249  1.00 20.00     0.302 C 
HETATM   23  C20 TFP  7194       0.447  33.655 231.033  1.00 20.00     0.310 C 
HETATM   24  C19 TFP  7194       1.229  33.324 233.864  1.00 20.00     0.302 C 
ENDBRANCH  17  18
ENDBRANCH  16  17
ENDBRANCH  15  16
ENDBRANCH  14  15
BRANCH   1  25
HETATM   25  C21 TFP  7194       3.896  37.295 238.003  1.00 20.00     0.417 C 
HETATM   26  F1  TFP  7194       4.860  36.505 237.826  1.00 20.00    -0.166 F 
HETATM   27  F2  TFP  7194       4.060  37.689 239.194  1.00 20.00    -0.166 F 
HETATM   28  F3  TFP  7194       4.298  38.336 237.402  1.00 20.00    -0.166 F 
ENDBRANCH   1  25
TORSDOF 5
ENDMDL
