MODEL 1
REMARK VINA RESULT:      -6.3      0.000      0.000
REMARK  5 active torsions:
REMARK  status: ('A' for Active; 'I' for Inactive)
REMARK    1  A    between atoms: C1_1  and  O3_19 
REMARK    2  A    between atoms: C3_3  and  O2_17 
REMARK    3  A    between atoms: C5_5  and  C7_7 
REMARK    4  A    between atoms: C8_8  and  C9_9 
REMARK    5  A    between atoms: C12_12  and  O1_15 
ROOT
HETATM    1  C1  STL  7009      -4.458  38.766 226.348  1.00 20.00     0.069 A 
HETATM    2  C2  STL  7009      -4.949  39.571 225.266  1.00 20.00     0.073 A 
HETATM    3  C3  STL  7009      -4.191  40.697 224.805  1.00 20.00     0.069 A 
HETATM    4  C4  STL  7009      -2.946  41.034 225.440  1.00 20.00     0.048 A 
HETATM    5  C5  STL  7009      -2.447  40.238 226.522  1.00 20.00    -0.031 A 
HETATM    6  C6  STL  7009      -3.209  39.096 226.977  1.00 20.00     0.048 A 
ENDROOT
BRANCH   5   7
HETATM    7  C7  STL  7009      -1.185  40.620 227.143  1.00 20.00     0.012 C 
HETATM    8  C8  STL  7009       0.019  40.758 226.413  1.00 20.00     0.012 C 
BRANCH   8   9
HETATM    9  C9  STL  7009       1.267  41.116 227.061  1.00 20.00    -0.036 A 
HETATM   10  C10 STL  7009       1.463  42.425 227.644  1.00 20.00     0.014 A 
HETATM   11  C11 STL  7009       2.704  42.753 228.282  1.00 20.00     0.037 A 
HETATM   12  C12 STL  7009       3.757  41.784 228.346  1.00 20.00     0.065 A 
HETATM   13  C13 STL  7009       3.569  40.482 227.767  1.00 20.00     0.037 A 
HETATM   14  C14 STL  7009       2.326  40.150 227.127  1.00 20.00     0.014 A 
BRANCH  12  15
HETATM   15  O1  STL  7009       4.931  42.090 228.953  1.00 20.00    -0.361 OA
ATOM     16  H1  STL  7009       5.746  41.725 228.629  1.00  0.00     0.217 HD
ENDBRANCH  12  15
ENDBRANCH   8   9
ENDBRANCH   5   7
BRANCH   3  17
HETATM   17  O2  STL  7009      -4.658  41.464 223.777  1.00 20.00    -0.361 OA
ATOM     18  H2  STL  7009      -4.634  41.134 222.886  1.00  0.00     0.217 HD
ENDBRANCH   3  17
BRANCH   1  19
HETATM   19  O3  STL  7009      -5.170  37.711 226.770  1.00 20.00    -0.361 OA
ATOM     20  H3  STL  7009      -5.528  37.705 227.650  1.00  0.00     0.217 HD
ENDBRANCH   1  19
TORSDOF 5
ENDMDL
MODEL 2
REMARK VINA RESULT:      -6.3      1.800      7.408
REMARK  5 active torsions:
REMARK  status: ('A' for Active; 'I' for Inactive)
REMARK    1  A    between atoms: C1_1  and  O3_19 
REMARK    2  A    between atoms: C3_3  and  O2_17 
REMARK    3  A    between atoms: C5_5  and  C7_7 
REMARK    4  A    between atoms: C8_8  and  C9_9 
REMARK    5  A    between atoms: C12_12  and  O1_15 
ROOT
HETATM    1  C1  STL  7009       2.991  41.063 228.052  1.00 20.00     0.069 A 
HETATM    2  C2  STL  7009       2.536  41.897 229.129  1.00 20.00     0.073 A 
HETATM    3  C3  STL  7009       1.152  42.261 229.222  1.00 20.00     0.069 A 
HETATM    4  C4  STL  7009       0.221  41.809 228.224  1.00 20.00     0.048 A 
HETATM    5  C5  STL  7009       0.665  40.979 227.144  1.00 20.00    -0.031 A 
HETATM    6  C6  STL  7009       2.060  40.603 227.060  1.00 20.00     0.048 A 
ENDROOT
BRANCH   5   7
HETATM    7  C7  STL  7009      -0.310  40.550 226.150  1.00 20.00     0.012 C 
HETATM    8  C8  STL  7009      -1.703  40.738 226.309  1.00 20.00     0.012 C 
BRANCH   8   9
HETATM    9  C9  STL  7009      -2.654  40.280 225.313  1.00 20.00    -0.036 A 
HETATM   10  C10 STL  7009      -3.820  39.508 225.686  1.00 20.00     0.014 A 
HETATM   11  C11 STL  7009      -4.746  39.071 224.684  1.00 20.00     0.037 A 
HETATM   12  C12 STL  7009      -4.522  39.396 223.307  1.00 20.00     0.065 A 
HETATM   13  C13 STL  7009      -3.365  40.161 222.931  1.00 20.00     0.037 A 
HETATM   14  C14 STL  7009      -2.434  40.601 223.933  1.00 20.00     0.014 A 
BRANCH  12  15
HETATM   15  O1  STL  7009      -5.400  38.987 222.357  1.00 20.00    -0.361 OA
ATOM     16  H1  STL  7009      -6.006  39.606 221.967  1.00  0.00     0.217 HD
ENDBRANCH  12  15
ENDBRANCH   8   9
ENDBRANCH   5   7
BRANCH   3  17
HETATM   17  O2  STL  7009       0.719  43.055 230.245  1.00 20.00    -0.361 OA
ATOM     18  H2  STL  7009       0.261  42.673 230.984  1.00  0.00     0.217 HD
ENDBRANCH   3  17
BRANCH   1  19
HETATM   19  O3  STL  7009       4.285  40.723 227.975  1.00 20.00    -0.361 OA
ATOM     20  H3  STL  7009       4.847  40.829 228.734  1.00  0.00     0.217 HD
ENDBRANCH   1  19
TORSDOF 5
ENDMDL
MODEL 3
REMARK VINA RESULT:      -6.2      0.125      2.052
REMARK  5 active torsions:
REMARK  status: ('A' for Active; 'I' for Inactive)
REMARK    1  A    between atoms: C1_1  and  O3_19 
REMARK    2  A    between atoms: C3_3  and  O2_17 
REMARK    3  A    between atoms: C5_5  and  C7_7 
REMARK    4  A    between atoms: C8_8  and  C9_9 
REMARK    5  A    between atoms: C12_12  and  O1_15 
ROOT
HETATM    1  C1  STL  7009      -4.128  40.701 224.824  1.00 20.00     0.069 A 
HETATM    2  C2  STL  7009      -4.872  39.573 225.311  1.00 20.00     0.073 A 
HETATM    3  C3  STL  7009      -4.370  38.800 226.409  1.00 20.00     0.069 A 
HETATM    4  C4  STL  7009      -3.109  39.141 227.010  1.00 20.00     0.048 A 
HETATM    5  C5  STL  7009      -2.358  40.262 226.531  1.00 20.00    -0.031 A 
HETATM    6  C6  STL  7009      -2.874  41.048 225.431  1.00 20.00     0.048 A 
ENDROOT
BRANCH   5   7
HETATM    7  C7  STL  7009      -1.081  40.567 227.164  1.00 20.00     0.012 C 
HETATM    8  C8  STL  7009       0.058  40.980 226.434  1.00 20.00     0.012 C 
BRANCH   8   9
HETATM    9  C9  STL  7009       1.325  41.254 227.088  1.00 20.00    -0.036 A 
HETATM   10  C10 STL  7009       1.586  42.530 227.716  1.00 20.00     0.014 A 
HETATM   11  C11 STL  7009       2.844  42.774 228.359  1.00 20.00     0.037 A 
HETATM   12  C12 STL  7009       3.849  41.754 228.382  1.00 20.00     0.065 A 
HETATM   13  C13 STL  7009       3.596  40.484 227.758  1.00 20.00     0.037 A 
HETATM   14  C14 STL  7009       2.336  40.236 227.113  1.00 20.00     0.014 A 
BRANCH  12  15
HETATM   15  O1  STL  7009       5.039  41.980 228.993  1.00 20.00    -0.361 OA
ATOM     16  H1  STL  7009       5.688  41.288 229.048  1.00  0.00     0.217 HD
ENDBRANCH  12  15
ENDBRANCH   8   9
ENDBRANCH   5   7
BRANCH   3  17
HETATM   17  O2  STL  7009      -5.076  37.728 226.871  1.00 20.00    -0.361 OA
ATOM     18  H2  STL  7009      -5.930  37.526 226.509  1.00  0.00     0.217 HD
ENDBRANCH   3  17
BRANCH   1  19
HETATM   19  O3  STL  7009      -4.607  41.422 223.800  1.00 20.00    -0.361 OA
ATOM     20  H3  STL  7009      -4.873  42.323 223.941  1.00  0.00     0.217 HD
ENDBRANCH   1  19
TORSDOF 5
ENDMDL
MODEL 4
REMARK VINA RESULT:      -6.2      1.983      7.509
REMARK  5 active torsions:
REMARK  status: ('A' for Active; 'I' for Inactive)
REMARK    1  A    between atoms: C1_1  and  O3_19 
REMARK    2  A    between atoms: C3_3  and  O2_17 
REMARK    3  A    between atoms: C5_5  and  C7_7 
REMARK    4  A    between atoms: C8_8  and  C9_9 
REMARK    5  A    between atoms: C12_12  and  O1_15 
ROOT
HETATM    1  C1  STL  7009       1.015  41.989 228.851  1.00 20.00     0.069 A 
HETATM    2  C2  STL  7009       1.948  41.944 227.761  1.00 20.00     0.073 A 
HETATM    3  C3  STL  7009       1.567  41.351 226.512  1.00 20.00     0.069 A 
HETATM    4  C4  STL  7009       0.256  40.781 226.357  1.00 20.00     0.048 A 
HETATM    5  C5  STL  7009      -0.682  40.818 227.439  1.00 20.00    -0.031 A 
HETATM    6  C6  STL  7009      -0.298  41.428 228.694  1.00 20.00     0.048 A 
ENDROOT
BRANCH   5   7
HETATM    7  C7  STL  7009      -1.996  40.221 227.242  1.00 20.00     0.012 C 
HETATM    8  C8  STL  7009      -2.633  40.165 225.981  1.00 20.00     0.012 C 
BRANCH   8   9
HETATM    9  C9  STL  7009      -3.953  39.586 225.817  1.00 20.00    -0.036 A 
HETATM   10  C10 STL  7009      -4.944  40.202 224.961  1.00 20.00     0.014 A 
HETATM   11  C11 STL  7009      -6.239  39.608 224.813  1.00 20.00     0.037 A 
HETATM   12  C12 STL  7009      -6.560  38.399 225.512  1.00 20.00     0.065 A 
HETATM   13  C13 STL  7009      -5.580  37.784 226.365  1.00 20.00     0.037 A 
HETATM   14  C14 STL  7009      -4.281  38.377 226.516  1.00 20.00     0.014 A 
BRANCH  12  15
HETATM   15  O1  STL  7009      -7.784  37.832 225.371  1.00 20.00    -0.361 OA
ATOM     16  H1  STL  7009      -8.562  38.376 225.334  1.00  0.00     0.217 HD
ENDBRANCH  12  15
ENDBRANCH   8   9
ENDBRANCH   5   7
BRANCH   3  17
HETATM   17  O2  STL  7009       2.454  41.308 225.476  1.00 20.00    -0.361 OA
ATOM     18  H2  STL  7009       2.143  41.186 224.586  1.00  0.00     0.217 HD
ENDBRANCH   3  17
BRANCH   1  19
HETATM   19  O3  STL  7009       1.376  42.550 230.014  1.00 20.00    -0.361 OA
ATOM     20  H3  STL  7009       2.275  42.480 230.312  1.00  0.00     0.217 HD
ENDBRANCH   1  19
TORSDOF 5
ENDMDL
MODEL 5
REMARK VINA RESULT:      -6.2      4.255      7.101
REMARK  5 active torsions:
REMARK  status: ('A' for Active; 'I' for Inactive)
REMARK    1  A    between atoms: C1_1  and  O3_19 
REMARK    2  A    between atoms: C3_3  and  O2_17 
REMARK    3  A    between atoms: C5_5  and  C7_7 
REMARK    4  A    between atoms: C8_8  and  C9_9 
REMARK    5  A    between atoms: C12_12  and  O1_15 
ROOT
HETATM    1  C1  STL  7009       1.158  42.242 226.744  1.00 20.00     0.069 A 
HETATM    2  C2  STL  7009       2.123  42.974 227.515  1.00 20.00     0.073 A 
HETATM    3  C3  STL  7009       3.199  42.284 228.164  1.00 20.00     0.069 A 
HETATM    4  C4  STL  7009       3.301  40.854 228.060  1.00 20.00     0.048 A 
HETATM    5  C5  STL  7009       2.343  40.113 227.295  1.00 20.00    -0.031 A 
HETATM    6  C6  STL  7009       1.265  40.814 226.632  1.00 20.00     0.048 A 
ENDROOT
BRANCH   5   7
HETATM    7  C7  STL  7009       2.478  38.664 227.224  1.00 20.00     0.012 C 
HETATM    8  C8  STL  7009       1.426  37.777 227.550  1.00 20.00     0.012 C 
BRANCH   8   9
HETATM    9  C9  STL  7009       1.596  36.337 227.494  1.00 20.00    -0.036 A 
HETATM   10  C10 STL  7009       1.411  35.511 228.668  1.00 20.00     0.014 A 
HETATM   11  C11 STL  7009       1.581  34.091 228.585  1.00 20.00     0.037 A 
HETATM   12  C12 STL  7009       1.935  33.481 227.338  1.00 20.00     0.065 A 
HETATM   13  C13 STL  7009       2.122  34.296 226.169  1.00 20.00     0.037 A 
HETATM   14  C14 STL  7009       1.953  35.721 226.249  1.00 20.00     0.014 A 
BRANCH  12  15
HETATM   15  O1  STL  7009       2.093  32.136 227.256  1.00 20.00    -0.361 OA
ATOM     16  H1  STL  7009       2.959  31.761 227.149  1.00  0.00     0.217 HD
ENDBRANCH  12  15
ENDBRANCH   8   9
ENDBRANCH   5   7
BRANCH   3  17
HETATM   17  O2  STL  7009       4.116  42.979 228.898  1.00 20.00    -0.361 OA
ATOM     18  H2  STL  7009       4.989  43.128 228.554  1.00  0.00     0.217 HD
ENDBRANCH   3  17
BRANCH   1  19
HETATM   19  O3  STL  7009       0.158  42.896 226.135  1.00 20.00    -0.361 OA
ATOM     20  H3  STL  7009      -0.123  43.741 226.466  1.00  0.00     0.217 HD
ENDBRANCH   1  19
TORSDOF 5
ENDMDL
MODEL 6
REMARK VINA RESULT:      -6.2      1.818      7.418
REMARK  5 active torsions:
REMARK  status: ('A' for Active; 'I' for Inactive)
REMARK    1  A    between atoms: C1_1  and  O3_19 
REMARK    2  A    between atoms: C3_3  and  O2_17 
REMARK    3  A    between atoms: C5_5  and  C7_7 
REMARK    4  A    between atoms: C8_8  and  C9_9 
REMARK    5  A    between atoms: C12_12  and  O1_15 
ROOT
HETATM    1  C1  STL  7009       1.170  42.286 229.227  1.00 20.00     0.069 A 
HETATM    2  C2  STL  7009       2.538  41.868 229.094  1.00 20.00     0.073 A 
HETATM    3  C3  STL  7009       2.934  41.041 227.993  1.00 20.00     0.069 A 
HETATM    4  C4  STL  7009       1.957  40.609 227.030  1.00 20.00     0.048 A 
HETATM    5  C5  STL  7009       0.589  41.019 227.154  1.00 20.00    -0.031 A 
HETATM    6  C6  STL  7009       0.196  41.864 228.260  1.00 20.00     0.048 A 
ENDROOT
BRANCH   5   7
HETATM    7  C7  STL  7009      -0.369  40.552 226.161  1.00 20.00     0.012 C 
HETATM    8  C8  STL  7009      -1.763  40.765 226.278  1.00 20.00     0.012 C 
BRANCH   8   9
HETATM    9  C9  STL  7009      -2.698  40.268 225.286  1.00 20.00    -0.036 A 
HETATM   10  C10 STL  7009      -3.852  39.484 225.668  1.00 20.00     0.014 A 
HETATM   11  C11 STL  7009      -4.763  39.008 224.669  1.00 20.00     0.037 A 
HETATM   12  C12 STL  7009      -4.534  39.307 223.287  1.00 20.00     0.065 A 
HETATM   13  C13 STL  7009      -3.389  40.085 222.902  1.00 20.00     0.037 A 
HETATM   14  C14 STL  7009      -2.474  40.563 223.901  1.00 20.00     0.014 A 
BRANCH  12  15
HETATM   15  O1  STL  7009      -5.397  38.862 222.339  1.00 20.00    -0.361 OA
ATOM     16  H1  STL  7009      -6.222  38.463 222.592  1.00  0.00     0.217 HD
ENDBRANCH  12  15
ENDBRANCH   8   9
ENDBRANCH   5   7
BRANCH   3  17
HETATM   17  O2  STL  7009       4.233  40.642 227.868  1.00 20.00    -0.361 OA
ATOM     18  H2  STL  7009       4.464  39.727 227.975  1.00  0.00     0.217 HD
ENDBRANCH   3  17
BRANCH   1  19
HETATM   19  O3  STL  7009       0.809  43.065 230.256  1.00 20.00    -0.361 OA
ATOM     20  H3  STL  7009       0.830  44.010 230.163  1.00  0.00     0.217 HD
ENDBRANCH   1  19
TORSDOF 5
ENDMDL
MODEL 7
REMARK VINA RESULT:      -6.0      1.776      7.423
REMARK  5 active torsions:
REMARK  status: ('A' for Active; 'I' for Inactive)
REMARK    1  A    between atoms: C1_1  and  O3_19 
REMARK    2  A    between atoms: C3_3  and  O2_17 
REMARK    3  A    between atoms: C5_5  and  C7_7 
REMARK    4  A    between atoms: C8_8  and  C9_9 
REMARK    5  A    between atoms: C12_12  and  O1_15 
ROOT
HETATM    1  C1  STL  7009       2.327  40.193 227.106  1.00 20.00     0.069 A 
HETATM    2  C2  STL  7009       2.681  41.544 227.440  1.00 20.00     0.073 A 
HETATM    3  C3  STL  7009       1.659  42.536 227.600  1.00 20.00     0.069 A 
HETATM    4  C4  STL  7009       0.279  42.185 227.406  1.00 20.00     0.048 A 
HETATM    5  C5  STL  7009      -0.085  40.840 227.071  1.00 20.00    -0.031 A 
HETATM    6  C6  STL  7009       0.948  39.839 226.922  1.00 20.00     0.048 A 
ENDROOT
BRANCH   5   7
HETATM    7  C7  STL  7009      -1.495  40.529 226.875  1.00 20.00     0.012 C 
HETATM    8  C8  STL  7009      -2.115  40.544 225.603  1.00 20.00     0.012 C 
BRANCH   8   9
HETATM    9  C9  STL  7009      -3.528  40.253 225.439  1.00 20.00    -0.036 A 
HETATM   10  C10 STL  7009      -4.414  41.184 224.776  1.00 20.00     0.014 A 
HETATM   11  C11 STL  7009      -5.805  40.872 224.623  1.00 20.00     0.037 A 
HETATM   12  C12 STL  7009      -6.323  39.635 225.126  1.00 20.00     0.065 A 
HETATM   13  C13 STL  7009      -5.447  38.707 225.787  1.00 20.00     0.037 A 
HETATM   14  C14 STL  7009      -4.053  39.017 225.942  1.00 20.00     0.014 A 
BRANCH  12  15
HETATM   15  O1  STL  7009      -7.638  39.335 224.979  1.00 20.00    -0.361 OA
ATOM     16  H1  STL  7009      -8.227  39.387 225.723  1.00  0.00     0.217 HD
ENDBRANCH  12  15
ENDBRANCH   8   9
ENDBRANCH   5   7
BRANCH   3  17
HETATM   17  O2  STL  7009       1.995  43.821 227.916  1.00 20.00    -0.361 OA
ATOM     18  H2  STL  7009       1.808  44.527 227.308  1.00  0.00     0.217 HD
ENDBRANCH   3  17
BRANCH   1  19
HETATM   19  O3  STL  7009       3.288  39.269 226.963  1.00 20.00    -0.361 OA
ATOM     20  H3  STL  7009       3.163  38.398 227.321  1.00  0.00     0.217 HD
ENDBRANCH   1  19
TORSDOF 5
ENDMDL
MODEL 8
REMARK VINA RESULT:      -6.0     12.030     14.327
REMARK  5 active torsions:
REMARK  status: ('A' for Active; 'I' for Inactive)
REMARK    1  A    between atoms: C1_1  and  O3_19 
REMARK    2  A    between atoms: C3_3  and  O2_17 
REMARK    3  A    between atoms: C5_5  and  C7_7 
REMARK    4  A    between atoms: C8_8  and  C9_9 
REMARK    5  A    between atoms: C12_12  and  O1_15 
ROOT
HETATM    1  C1  STL  7009       5.376  31.800 238.877  1.00 20.00     0.069 A 
HETATM    2  C2  STL  7009       5.556  30.777 237.885  1.00 20.00     0.073 A 
HETATM    3  C3  STL  7009       4.939  30.907 236.597  1.00 20.00     0.069 A 
HETATM    4  C4  STL  7009       4.119  32.052 236.306  1.00 20.00     0.048 A 
HETATM    5  C5  STL  7009       3.930  33.076 237.289  1.00 20.00    -0.031 A 
HETATM    6  C6  STL  7009       4.565  32.948 238.582  1.00 20.00     0.048 A 
ENDROOT
BRANCH   5   7
HETATM    7  C7  STL  7009       3.085  34.215 236.954  1.00 20.00     0.012 C 
HETATM    8  C8  STL  7009       1.822  34.435 237.552  1.00 20.00     0.012 C 
BRANCH   8   9
HETATM    9  C9  STL  7009       0.989  35.565 237.182  1.00 20.00    -0.036 A 
HETATM   10  C10 STL  7009      -0.372  35.379 236.728  1.00 20.00     0.014 A 
HETATM   11  C11 STL  7009      -1.175  36.511 236.373  1.00 20.00     0.037 A 
HETATM   12  C12 STL  7009      -0.633  37.834 236.466  1.00 20.00     0.065 A 
HETATM   13  C13 STL  7009       0.719  38.025 236.914  1.00 20.00     0.037 A 
HETATM   14  C14 STL  7009       1.526  36.892 237.272  1.00 20.00     0.014 A 
BRANCH  12  15
HETATM   15  O1  STL  7009      -1.393  38.908 236.134  1.00 20.00    -0.361 OA
ATOM     16  H1  STL  7009      -0.982  39.705 235.818  1.00  0.00     0.217 HD
ENDBRANCH  12  15
ENDBRANCH   8   9
ENDBRANCH   5   7
BRANCH   3  17
HETATM   17  O2  STL  7009       5.110  29.935 235.654  1.00 20.00    -0.361 OA
ATOM     18  H2  STL  7009       5.430  29.077 235.906  1.00  0.00     0.217 HD
ENDBRANCH   3  17
BRANCH   1  19
HETATM   19  O3  STL  7009       5.961  31.674 240.076  1.00 20.00    -0.361 OA
ATOM     20  H3  STL  7009       6.782  32.119 240.250  1.00  0.00     0.217 HD
ENDBRANCH   1  19
TORSDOF 5
ENDMDL
MODEL 9
REMARK VINA RESULT:      -5.8      4.723      6.169
REMARK  5 active torsions:
REMARK  status: ('A' for Active; 'I' for Inactive)
REMARK    1  A    between atoms: C1_1  and  O3_19 
REMARK    2  A    between atoms: C3_3  and  O2_17 
REMARK    3  A    between atoms: C5_5  and  C7_7 
REMARK    4  A    between atoms: C8_8  and  C9_9 
REMARK    5  A    between atoms: C12_12  and  O1_15 
ROOT
HETATM    1  C1  STL  7009       1.369  34.327 229.037  1.00 20.00     0.069 A 
HETATM    2  C2  STL  7009       1.648  33.389 227.986  1.00 20.00     0.073 A 
HETATM    3  C3  STL  7009       1.973  33.857 226.671  1.00 20.00     0.069 A 
HETATM    4  C4  STL  7009       1.999  35.269 226.396  1.00 20.00     0.048 A 
HETATM    5  C5  STL  7009       1.721  36.213 227.437  1.00 20.00    -0.031 A 
HETATM    6  C6  STL  7009       1.405  35.737 228.766  1.00 20.00     0.048 A 
ENDROOT
BRANCH   5   7
HETATM    7  C7  STL  7009       1.750  37.634 227.113  1.00 20.00     0.012 C 
HETATM    8  C8  STL  7009       0.765  38.544 227.562  1.00 20.00     0.012 C 
BRANCH   8   9
HETATM    9  C9  STL  7009       0.805  39.950 227.204  1.00 20.00    -0.036 A 
HETATM   10  C10 STL  7009      -0.400  40.674 226.864  1.00 20.00     0.014 A 
HETATM   11  C11 STL  7009      -0.334  42.063 226.518  1.00 20.00     0.037 A 
HETATM   12  C12 STL  7009       0.927  42.742 226.509  1.00 20.00     0.065 A 
HETATM   13  C13 STL  7009       2.128  42.028 226.845  1.00 20.00     0.037 A 
HETATM   14  C14 STL  7009       2.065  40.635 227.192  1.00 20.00     0.014 A 
BRANCH  12  15
HETATM   15  O1  STL  7009       0.992  44.059 226.186  1.00 20.00    -0.361 OA
ATOM     16  H1  STL  7009       0.217  44.605 226.246  1.00  0.00     0.217 HD
ENDBRANCH  12  15
ENDBRANCH   8   9
ENDBRANCH   5   7
BRANCH   3  17
HETATM   17  O2  STL  7009       2.236  32.966 225.671  1.00 20.00    -0.361 OA
ATOM     18  H2  STL  7009       2.540  33.274 224.825  1.00  0.00     0.217 HD
ENDBRANCH   3  17
BRANCH   1  19
HETATM   19  O3  STL  7009       1.072  33.882 230.265  1.00 20.00    -0.361 OA
ATOM     20  H3  STL  7009       1.757  33.807 230.919  1.00  0.00     0.217 HD
ENDBRANCH   1  19
TORSDOF 5
ENDMDL
