MODEL 1
REMARK VINA RESULT:      -7.2      0.000      0.000
REMARK  1 active torsions:
REMARK  status: ('A' for Active; 'I' for Inactive)
REMARK    1  A    between atoms: C17_18  and  O17_19 
ROOT
HETATM    1  C1  TES  7178      -0.003  35.295 236.759  1.00 20.00     0.022 C 
HETATM    2  C2  TES  7178      -0.746  36.428 236.039  1.00 20.00     0.084 C 
HETATM    3  C3  TES  7178      -0.454  37.752 236.637  1.00 20.00     0.149 C 
HETATM    4  O3  TES  7178      -1.273  38.627 236.780  1.00 20.00    -0.293 OA
HETATM    5  C4  TES  7178       0.920  37.975 237.020  1.00 20.00     0.053 C 
HETATM    6  C5  TES  7178       1.854  36.997 237.094  1.00 20.00    -0.068 C 
HETATM    7  C6  TES  7178       3.260  37.359 237.470  1.00 20.00     0.035 C 
HETATM    8  C7  TES  7178       3.780  36.545 238.648  1.00 20.00     0.010 C 
HETATM    9  C8  TES  7178       3.552  35.057 238.369  1.00 20.00    -0.004 C 
HETATM   10  C9  TES  7178       2.101  34.704 238.019  1.00 20.00     0.002 C 
HETATM   11  C10 TES  7178       1.528  35.508 236.842  1.00 20.00    -0.016 C 
HETATM   12  C11 TES  7178       1.839  33.201 237.764  1.00 20.00     0.007 C 
HETATM   13  C12 TES  7178       2.310  32.376 238.973  1.00 20.00     0.012 C 
HETATM   14  C13 TES  7178       3.764  32.678 239.322  1.00 20.00    -0.014 C 
HETATM   15  C14 TES  7178       3.923  34.185 239.564  1.00 20.00     0.001 C 
HETATM   16  C15 TES  7178       5.312  34.341 240.185  1.00 20.00     0.008 C 
HETATM   17  C16 TES  7178       5.415  33.109 241.104  1.00 20.00     0.033 C 
HETATM   18  C17 TES  7178       4.187  32.228 240.758  1.00 20.00     0.126 C 
HETATM   19  C18 TES  7178       4.741  32.156 238.250  1.00 20.00     0.018 C 
HETATM   20  C19 TES  7178       2.213  35.106 235.520  1.00 20.00     0.020 C 
ENDROOT
BRANCH  18  21
HETATM   21  O17 TES  7178       4.408  30.820 240.903  1.00 20.00    -0.395 OA
ATOM     22  H17 TES  7178       4.828  30.406 240.159  1.00  0.00     0.210 HD
ENDBRANCH  18  21
TORSDOF 1
ENDMDL
MODEL 2
REMARK VINA RESULT:      -6.7      3.876      6.127
REMARK  1 active torsions:
REMARK  status: ('A' for Active; 'I' for Inactive)
REMARK    1  A    between atoms: C17_18  and  O17_19 
ROOT
HETATM    1  C1  TES  7178       3.382  34.141 237.367  1.00 20.00     0.022 C 
HETATM    2  C2  TES  7178       3.890  35.197 238.356  1.00 20.00     0.084 C 
HETATM    3  C3  TES  7178       4.239  36.469 237.681  1.00 20.00     0.149 C 
HETATM    4  O3  TES  7178       5.187  37.154 237.974  1.00 20.00    -0.293 OA
HETATM    5  C4  TES  7178       3.331  36.892 236.640  1.00 20.00     0.053 C 
HETATM    6  C5  TES  7178       2.372  36.101 236.103  1.00 20.00    -0.068 C 
HETATM    7  C6  TES  7178       1.466  36.667 235.051  1.00 20.00     0.035 C 
HETATM    8  C7  TES  7178       1.444  35.825 233.782  1.00 20.00     0.010 C 
HETATM    9  C8  TES  7178       1.167  34.365 234.152  1.00 20.00    -0.004 C 
HETATM   10  C9  TES  7178       2.126  33.797 235.206  1.00 20.00     0.002 C 
HETATM   11  C10 TES  7178       2.190  34.619 236.502  1.00 20.00    -0.016 C 
HETATM   12  C11 TES  7178       1.886  32.314 235.573  1.00 20.00     0.007 C 
HETATM   13  C12 TES  7178       1.919  31.448 234.303  1.00 20.00     0.012 C 
HETATM   14  C13 TES  7178       0.945  31.968 233.249  1.00 20.00    -0.014 C 
HETATM   15  C14 TES  7178       1.265  33.437 232.946  1.00 20.00     0.001 C 
HETATM   16  C15 TES  7178       0.451  33.769 231.695  1.00 20.00     0.008 C 
HETATM   17  C16 TES  7178       0.556  32.475 230.866  1.00 20.00     0.033 C 
HETATM   18  C17 TES  7178       1.214  31.432 231.806  1.00 20.00     0.126 C 
HETATM   19  C18 TES  7178      -0.525  31.769 233.666  1.00 20.00     0.018 C 
HETATM   20  C19 TES  7178       0.864  34.514 237.283  1.00 20.00     0.020 C 
ENDROOT
BRANCH  18  21
HETATM   21  O17 TES  7178       0.793  30.081 231.581  1.00 20.00    -0.395 OA
ATOM     22  H17 TES  7178       0.179  29.745 232.223  1.00  0.00     0.210 HD
ENDBRANCH  18  21
TORSDOF 1
ENDMDL
MODEL 3
REMARK VINA RESULT:      -6.5      3.247      6.756
REMARK  1 active torsions:
REMARK  status: ('A' for Active; 'I' for Inactive)
REMARK    1  A    between atoms: C17_18  and  O17_19 
ROOT
HETATM    1  C1  TES  7178       3.433  34.701 236.362  1.00 20.00     0.022 C 
HETATM    2  C2  TES  7178       4.257  35.109 237.589  1.00 20.00     0.084 C 
HETATM    3  C3  TES  7178       4.170  36.564 237.859  1.00 20.00     0.149 C 
HETATM    4  O3  TES  7178       5.096  37.241 238.231  1.00 20.00    -0.293 OA
HETATM    5  C4  TES  7178       2.862  37.152 237.691  1.00 20.00     0.053 C 
HETATM    6  C5  TES  7178       1.823  36.530 237.085  1.00 20.00    -0.068 C 
HETATM    7  C6  TES  7178       0.501  37.231 237.003  1.00 20.00     0.035 C 
HETATM    8  C7  TES  7178      -0.033  37.311 235.578  1.00 20.00     0.010 C 
HETATM    9  C8  TES  7178      -0.007  35.914 234.953  1.00 20.00    -0.004 C 
HETATM   10  C9  TES  7178       1.363  35.227 235.019  1.00 20.00     0.002 C 
HETATM   11  C10 TES  7178       1.948  35.132 236.436  1.00 20.00    -0.016 C 
HETATM   12  C11 TES  7178       1.423  33.827 234.365  1.00 20.00     0.007 C 
HETATM   13  C12 TES  7178       0.939  33.909 232.908  1.00 20.00     0.012 C 
HETATM   14  C13 TES  7178      -0.441  34.553 232.815  1.00 20.00    -0.014 C 
HETATM   15  C14 TES  7178      -0.400  35.935 233.480  1.00 20.00     0.001 C 
HETATM   16  C15 TES  7178      -1.714  36.607 233.079  1.00 20.00     0.008 C 
HETATM   17  C16 TES  7178      -1.903  36.143 231.622  1.00 20.00     0.033 C 
HETATM   18  C17 TES  7178      -0.817  35.062 231.385  1.00 20.00     0.126 C 
HETATM   19  C18 TES  7178      -1.545  33.656 233.409  1.00 20.00     0.018 C 
HETATM   20  C19 TES  7178       1.132  34.151 237.301  1.00 20.00     0.020 C 
ENDROOT
BRANCH  18  21
HETATM   21  O17 TES  7178      -1.197  34.031 230.465  1.00 20.00    -0.395 OA
ATOM     22  H17 TES  7178      -1.080  34.255 229.549  1.00  0.00     0.210 HD
ENDBRANCH  18  21
TORSDOF 1
ENDMDL
MODEL 4
REMARK VINA RESULT:      -6.5      3.621      5.651
REMARK  1 active torsions:
REMARK  status: ('A' for Active; 'I' for Inactive)
REMARK    1  A    between atoms: C17_18  and  O17_19 
ROOT
HETATM    1  C1  TES  7178       1.065  33.516 232.486  1.00 20.00     0.022 C 
HETATM    2  C2  TES  7178       0.472  32.361 231.669  1.00 20.00     0.084 C 
HETATM    3  C3  TES  7178       0.952  31.042 232.141  1.00 20.00     0.149 C 
HETATM    4  O3  TES  7178       1.227  30.120 231.413  1.00 20.00    -0.293 OA
HETATM    5  C4  TES  7178       1.041  30.886 233.574  1.00 20.00     0.053 C 
HETATM    6  C5  TES  7178       0.958  31.912 234.454  1.00 20.00    -0.068 C 
HETATM    7  C6  TES  7178       1.029  31.620 235.923  1.00 20.00     0.035 C 
HETATM    8  C7  TES  7178       2.105  32.433 236.632  1.00 20.00     0.010 C 
HETATM    9  C8  TES  7178       1.930  33.913 236.279  1.00 20.00    -0.004 C 
HETATM   10  C9  TES  7178       1.893  34.193 234.771  1.00 20.00     0.002 C 
HETATM   11  C10 TES  7178       0.829  33.387 234.011  1.00 20.00    -0.016 C 
HETATM   12  C11 TES  7178       1.749  35.685 234.388  1.00 20.00     0.007 C 
HETATM   13  C12 TES  7178       2.865  36.506 235.055  1.00 20.00     0.012 C 
HETATM   14  C13 TES  7178       2.902  36.276 236.563  1.00 20.00    -0.014 C 
HETATM   15  C14 TES  7178       3.054  34.776 236.842  1.00 20.00     0.001 C 
HETATM   16  C15 TES  7178       3.376  34.681 238.334  1.00 20.00     0.008 C 
HETATM   17  C16 TES  7178       4.297  35.895 238.561  1.00 20.00     0.033 C 
HETATM   18  C17 TES  7178       4.238  36.715 237.247  1.00 20.00     0.126 C 
HETATM   19  C18 TES  7178       1.674  36.877 237.274  1.00 20.00     0.018 C 
HETATM   20  C19 TES  7178      -0.590  33.858 234.391  1.00 20.00     0.020 C 
ENDROOT
BRANCH  18  21
HETATM   21  O17 TES  7178       4.383  38.129 237.422  1.00 20.00    -0.395 OA
ATOM     22  H17 TES  7178       5.197  38.396 237.832  1.00  0.00     0.210 HD
ENDBRANCH  18  21
TORSDOF 1
ENDMDL
MODEL 5
REMARK VINA RESULT:      -6.3      9.137     11.813
REMARK  1 active torsions:
REMARK  status: ('A' for Active; 'I' for Inactive)
REMARK    1  A    between atoms: C17_18  and  O17_19 
ROOT
HETATM    1  C1  TES  7178       0.090  32.319 227.882  1.00 20.00     0.022 C 
HETATM    2  C2  TES  7178       1.146  31.263 227.531  1.00 20.00     0.084 C 
HETATM    3  C3  TES  7178       2.179  31.795 226.611  1.00 20.00     0.149 C 
HETATM    4  O3  TES  7178       2.666  31.167 225.704  1.00 20.00    -0.293 OA
HETATM    5  C4  TES  7178       2.627  33.140 226.886  1.00 20.00     0.053 C 
HETATM    6  C5  TES  7178       2.002  33.988 227.737  1.00 20.00    -0.068 C 
HETATM    7  C6  TES  7178       2.584  35.350 227.966  1.00 20.00     0.035 C 
HETATM    8  C7  TES  7178       1.577  36.467 227.722  1.00 20.00     0.010 C 
HETATM    9  C8  TES  7178       0.299  36.173 228.512  1.00 20.00    -0.004 C 
HETATM   10  C9  TES  7178      -0.298  34.786 228.237  1.00 20.00     0.002 C 
HETATM   11  C10 TES  7178       0.684  33.627 228.460  1.00 20.00    -0.016 C 
HETATM   12  C11 TES  7178      -1.608  34.477 228.999  1.00 20.00     0.007 C 
HETATM   13  C12 TES  7178      -2.650  35.572 228.713  1.00 20.00     0.012 C 
HETATM   14  C13 TES  7178      -2.097  36.961 229.015  1.00 20.00    -0.014 C 
HETATM   15  C14 TES  7178      -0.808  37.177 228.211  1.00 20.00     0.001 C 
HETATM   16  C15 TES  7178      -0.503  38.670 228.346  1.00 20.00     0.008 C 
HETATM   17  C16 TES  7178      -1.903  39.311 228.287  1.00 20.00     0.033 C 
HETATM   18  C17 TES  7178      -2.904  38.130 228.362  1.00 20.00     0.126 C 
HETATM   19  C18 TES  7178      -1.884  37.189 230.524  1.00 20.00     0.018 C 
HETATM   20  C19 TES  7178       1.013  33.468 229.959  1.00 20.00     0.020 C 
ENDROOT
BRANCH  18  21
HETATM   21  O17 TES  7178      -4.140  38.441 229.017  1.00 20.00    -0.395 OA
ATOM     22  H17 TES  7178      -4.774  38.894 228.474  1.00  0.00     0.210 HD
ENDBRANCH  18  21
TORSDOF 1
ENDMDL
MODEL 6
REMARK VINA RESULT:      -6.3      4.539      6.534
REMARK  1 active torsions:
REMARK  status: ('A' for Active; 'I' for Inactive)
REMARK    1  A    between atoms: C17_18  and  O17_19 
ROOT
HETATM    1  C1  TES  7178       0.269  33.863 230.946  1.00 20.00     0.022 C 
HETATM    2  C2  TES  7178      -0.262  32.939 229.843  1.00 20.00     0.084 C 
HETATM    3  C3  TES  7178       0.457  31.643 229.809  1.00 20.00     0.149 C 
HETATM    4  O3  TES  7178       0.758  31.061 228.797  1.00 20.00    -0.293 OA
HETATM    5  C4  TES  7178       0.757  31.063 231.097  1.00 20.00     0.053 C 
HETATM    6  C5  TES  7178       0.649  31.728 232.272  1.00 20.00    -0.068 C 
HETATM    7  C6  TES  7178       0.956  31.006 233.549  1.00 20.00     0.035 C 
HETATM    8  C7  TES  7178       1.993  31.730 234.399  1.00 20.00     0.010 C 
HETATM    9  C8  TES  7178       1.568  33.191 234.572  1.00 20.00    -0.004 C 
HETATM   10  C9  TES  7178       1.291  33.920 233.251  1.00 20.00     0.002 C 
HETATM   11  C10 TES  7178       0.258  33.221 232.355  1.00 20.00    -0.016 C 
HETATM   12  C11 TES  7178       0.891  35.407 233.399  1.00 20.00     0.007 C 
HETATM   13  C12 TES  7178       1.961  36.158 234.208  1.00 20.00     0.012 C 
HETATM   14  C13 TES  7178       2.230  35.476 235.546  1.00 20.00    -0.014 C 
HETATM   15  C14 TES  7178       2.626  34.015 235.298  1.00 20.00     0.001 C 
HETATM   16  C15 TES  7178       3.153  33.514 236.643  1.00 20.00     0.008 C 
HETATM   17  C16 TES  7178       3.919  34.736 237.185  1.00 20.00     0.033 C 
HETATM   18  C17 TES  7178       3.571  35.904 236.227  1.00 20.00     0.126 C 
HETATM   19  C18 TES  7178       1.036  35.598 236.513  1.00 20.00     0.018 C 
HETATM   20  C19 TES  7178      -1.149  33.292 232.983  1.00 20.00     0.020 C 
ENDROOT
BRANCH  18  21
HETATM   21  O17 TES  7178       3.540  37.194 236.850  1.00 20.00    -0.395 OA
ATOM     22  H17 TES  7178       4.015  37.871 236.383  1.00  0.00     0.210 HD
ENDBRANCH  18  21
TORSDOF 1
ENDMDL
MODEL 7
REMARK VINA RESULT:      -6.3      1.218      6.546
REMARK  1 active torsions:
REMARK  status: ('A' for Active; 'I' for Inactive)
REMARK    1  A    between atoms: C17_18  and  O17_19 
ROOT
HETATM    1  C1  TES  7178       4.152  34.165 238.920  1.00 20.00     0.022 C 
HETATM    2  C2  TES  7178       4.988  33.022 239.508  1.00 20.00     0.084 C 
HETATM    3  C3  TES  7178       4.139  31.923 240.027  1.00 20.00     0.149 C 
HETATM    4  O3  TES  7178       4.373  31.305 241.036  1.00 20.00    -0.293 OA
HETATM    5  C4  TES  7178       2.996  31.581 239.215  1.00 20.00     0.053 C 
HETATM    6  C5  TES  7178       2.538  32.342 238.192  1.00 20.00    -0.068 C 
HETATM    7  C6  TES  7178       1.360  31.862 237.398  1.00 20.00     0.035 C 
HETATM    8  C7  TES  7178       0.241  32.894 237.327  1.00 20.00     0.010 C 
HETATM    9  C8  TES  7178       0.822  34.235 236.870  1.00 20.00    -0.004 C 
HETATM   10  C9  TES  7178       2.006  34.722 237.716  1.00 20.00     0.002 C 
HETATM   11  C10 TES  7178       3.156  33.710 237.825  1.00 20.00    -0.016 C 
HETATM   12  C11 TES  7178       2.590  36.090 237.294  1.00 20.00     0.007 C 
HETATM   13  C12 TES  7178       1.477  37.151 237.274  1.00 20.00     0.012 C 
HETATM   14  C13 TES  7178       0.301  36.710 236.407  1.00 20.00    -0.014 C 
HETATM   15  C14 TES  7178      -0.213  35.354 236.906  1.00 20.00     0.001 C 
HETATM   16  C15 TES  7178      -1.545  35.146 236.184  1.00 20.00     0.008 C 
HETATM   17  C16 TES  7178      -2.150  36.563 236.171  1.00 20.00     0.033 C 
HETATM   18  C17 TES  7178      -1.021  37.502 236.668  1.00 20.00     0.126 C 
HETATM   19  C18 TES  7178       0.661  36.679 234.909  1.00 20.00     0.018 C 
HETATM   20  C19 TES  7178       3.868  33.543 236.467  1.00 20.00     0.020 C 
ENDROOT
BRANCH  18  21
HETATM   21  O17 TES  7178      -1.052  38.818 236.103  1.00 20.00    -0.395 OA
ATOM     22  H17 TES  7178      -0.709  38.878 235.219  1.00  0.00     0.210 HD
ENDBRANCH  18  21
TORSDOF 1
ENDMDL
MODEL 8
REMARK VINA RESULT:      -6.2      2.225      6.151
REMARK  1 active torsions:
REMARK  status: ('A' for Active; 'I' for Inactive)
REMARK    1  A    between atoms: C17_18  and  O17_19 
ROOT
HETATM    1  C1  TES  7178       3.248  37.044 237.894  1.00 20.00     0.022 C 
HETATM    2  C2  TES  7178       4.434  37.061 238.866  1.00 20.00     0.084 C 
HETATM    3  C3  TES  7178       4.273  36.072 239.957  1.00 20.00     0.149 C 
HETATM    4  O3  TES  7178       4.592  36.269 241.103  1.00 20.00    -0.293 OA
HETATM    5  C4  TES  7178       3.734  34.791 239.563  1.00 20.00     0.053 C 
HETATM    6  C5  TES  7178       3.160  34.548 238.361  1.00 20.00    -0.068 C 
HETATM    7  C6  TES  7178       2.668  33.165 238.056  1.00 20.00     0.035 C 
HETATM    8  C7  TES  7178       1.209  33.144 237.619  1.00 20.00     0.010 C 
HETATM    9  C8  TES  7178       1.007  34.162 236.492  1.00 20.00    -0.004 C 
HETATM   10  C9  TES  7178       1.487  35.577 236.839  1.00 20.00     0.002 C 
HETATM   11  C10 TES  7178       2.952  35.647 237.295  1.00 20.00    -0.016 C 
HETATM   12  C11 TES  7178       1.265  36.631 235.728  1.00 20.00     0.007 C 
HETATM   13  C12 TES  7178      -0.217  36.656 235.321  1.00 20.00     0.012 C 
HETATM   14  C13 TES  7178      -0.713  35.266 234.933  1.00 20.00    -0.014 C 
HETATM   15  C14 TES  7178      -0.458  34.297 236.095  1.00 20.00     0.001 C 
HETATM   16  C15 TES  7178      -1.242  33.034 235.735  1.00 20.00     0.008 C 
HETATM   17  C16 TES  7178      -2.525  33.599 235.095  1.00 20.00     0.033 C 
HETATM   18  C17 TES  7178      -2.269  35.119 234.924  1.00 20.00     0.126 C 
HETATM   19  C18 TES  7178      -0.086  34.770 233.615  1.00 20.00     0.018 C 
HETATM   20  C19 TES  7178       3.906  35.336 236.124  1.00 20.00     0.020 C 
ENDROOT
BRANCH  18  21
HETATM   21  O17 TES  7178      -2.919  35.706 233.790  1.00 20.00    -0.395 OA
ATOM     22  H17 TES  7178      -2.338  35.937 233.076  1.00  0.00     0.210 HD
ENDBRANCH  18  21
TORSDOF 1
ENDMDL
MODEL 9
REMARK VINA RESULT:      -6.2      2.765      6.833
REMARK  1 active torsions:
REMARK  status: ('A' for Active; 'I' for Inactive)
REMARK    1  A    between atoms: C17_18  and  O17_19 
ROOT
HETATM    1  C1  TES  7178       3.466  33.158 235.814  1.00 20.00     0.022 C 
HETATM    2  C2  TES  7178       4.230  31.834 235.941  1.00 20.00     0.084 C 
HETATM    3  C3  TES  7178       3.694  30.985 237.030  1.00 20.00     0.149 C 
HETATM    4  O3  TES  7178       4.376  30.320 237.770  1.00 20.00    -0.293 OA
HETATM    5  C4  TES  7178       2.255  30.953 237.146  1.00 20.00     0.053 C 
HETATM    6  C5  TES  7178       1.424  31.813 236.509  1.00 20.00    -0.068 C 
HETATM    7  C6  TES  7178      -0.057  31.656 236.681  1.00 20.00     0.035 C 
HETATM    8  C7  TES  7178      -0.732  32.941 237.146  1.00 20.00     0.010 C 
HETATM    9  C8  TES  7178      -0.309  34.091 236.229  1.00 20.00    -0.004 C 
HETATM   10  C9  TES  7178       1.211  34.253 236.094  1.00 20.00     0.002 C 
HETATM   11  C10 TES  7178       1.938  32.980 235.636  1.00 20.00    -0.016 C 
HETATM   12  C11 TES  7178       1.664  35.430 235.197  1.00 20.00     0.007 C 
HETATM   13  C12 TES  7178       1.031  36.740 235.695  1.00 20.00     0.012 C 
HETATM   14  C13 TES  7178      -0.487  36.621 235.802  1.00 20.00    -0.014 C 
HETATM   15  C14 TES  7178      -0.837  35.437 236.713  1.00 20.00     0.001 C 
HETATM   16  C15 TES  7178      -2.333  35.582 236.993  1.00 20.00     0.008 C 
HETATM   17  C16 TES  7178      -2.508  37.107 237.131  1.00 20.00     0.033 C 
HETATM   18  C17 TES  7178      -1.156  37.722 236.687  1.00 20.00     0.126 C 
HETATM   19  C18 TES  7178      -1.162  36.510 234.422  1.00 20.00     0.018 C 
HETATM   20  C19 TES  7178       1.588  32.646 234.172  1.00 20.00     0.020 C 
ENDROOT
BRANCH  18  21
HETATM   21  O17 TES  7178      -1.266  39.007 236.061  1.00 20.00    -0.395 OA
ATOM     22  H17 TES  7178      -0.616  39.640 236.339  1.00  0.00     0.210 HD
ENDBRANCH  18  21
TORSDOF 1
ENDMDL
