MODEL 1
REMARK VINA RESULT:      -6.5      0.000      0.000
REMARK  4 active torsions:
REMARK  status: ('A' for Active; 'I' for Inactive)
REMARK    1  A    between atoms: C3_4  and  N1_9 
REMARK    2  A    between atoms: C8_12  and  N1_9 
REMARK    3  A    between atoms: C13_17  and  C7_11 
REMARK    4  A    between atoms: C13_17  and  C14_18 
ROOT
HETATM    1  C7  DIF  3033       1.289  36.867 237.133  1.00 20.00    -0.003 A 
HETATM    2  C8  DIF  3033       0.718  35.577 237.006  1.00 20.00     0.043 A 
HETATM    3  C9  DIF  3033      -0.632  35.453 236.661  1.00 20.00     0.030 A 
HETATM    4  C10 DIF  3033      -1.425  36.587 236.470  1.00 20.00     0.002 A 
HETATM    5  C11 DIF  3033      -0.880  37.857 236.630  1.00 20.00     0.001 A 
HETATM    6  C12 DIF  3033       0.465  37.993 236.961  1.00 20.00     0.014 A 
ENDROOT
BRANCH   2   7
HETATM    7  N1  DIF  3033       1.473  34.390 237.114  1.00 20.00    -0.353 N 
ATOM      8  H1  DIF  3033       1.052  33.820 237.848  1.00  0.00     0.166 HD
BRANCH   7   9
HETATM    9  C3  DIF  3033       2.624  33.659 236.583  1.00 20.00     0.076 A 
HETATM   10  C2  DIF  3033       3.707  33.197 237.372  1.00 20.00     0.062 A 
HETATM   11  C1  DIF  3033       4.498  32.101 236.961  1.00 20.00     0.026 A 
HETATM   12 CL2  DIF  3033       4.045  33.750 238.960  1.00 20.00    -0.082 Cl
HETATM   13  C6  DIF  3033       4.227  31.431 235.769  1.00 20.00     0.003 A 
HETATM   14  C5  DIF  3033       3.165  31.847 234.968  1.00 20.00     0.026 A 
HETATM   15  C4  DIF  3033       2.379  32.948 235.360  1.00 20.00     0.062 A 
HETATM   16 CL4  DIF  3033       1.094  33.403 234.303  1.00 20.00    -0.082 Cl
ENDBRANCH   7   9
ENDBRANCH   2   7
BRANCH   1  17
HETATM   17  C13 DIF  3033       2.748  37.111 237.338  1.00 20.00     0.098 C 
BRANCH  17  18
HETATM   18  C14 DIF  3033       3.916  37.236 238.246  1.00 20.00     0.199 C 
HETATM   19  O2  DIF  3033       5.012  37.091 237.477  1.00 20.00    -0.644 OA
HETATM   20  O1  DIF  3033       3.961  37.238 239.473  1.00 20.00    -0.644 OA
ENDBRANCH  17  18
ENDBRANCH   1  17
TORSDOF 4
ENDMDL
MODEL 2
REMARK VINA RESULT:      -6.4      0.855      2.304
REMARK  4 active torsions:
REMARK  status: ('A' for Active; 'I' for Inactive)
REMARK    1  A    between atoms: C3_4  and  N1_9 
REMARK    2  A    between atoms: C8_12  and  N1_9 
REMARK    3  A    between atoms: C13_17  and  C7_11 
REMARK    4  A    between atoms: C13_17  and  C14_18 
ROOT
HETATM    1  C7  DIF  3033       1.419  37.045 236.852  1.00 20.00    -0.003 A 
HETATM    2  C8  DIF  3033       1.021  35.922 236.085  1.00 20.00     0.043 A 
HETATM    3  C9  DIF  3033      -0.308  35.815 235.661  1.00 20.00     0.030 A 
HETATM    4  C10 DIF  3033      -1.247  36.788 236.009  1.00 20.00     0.002 A 
HETATM    5  C11 DIF  3033      -0.871  37.875 236.793  1.00 20.00     0.001 A 
HETATM    6  C12 DIF  3033       0.451  37.998 237.211  1.00 20.00     0.014 A 
ENDROOT
BRANCH   2   7
HETATM    7  N1  DIF  3033       1.928  34.939 235.636  1.00 20.00    -0.353 N 
ATOM      8  H1  DIF  3033       2.725  35.419 235.218  1.00  0.00     0.166 HD
BRANCH   7   9
HETATM    9  C3  DIF  3033       2.170  33.499 235.538  1.00 20.00     0.076 A 
HETATM   10  C2  DIF  3033       1.748  32.694 234.450  1.00 20.00     0.062 A 
HETATM   11  C1  DIF  3033       2.409  31.486 234.132  1.00 20.00     0.026 A 
HETATM   12 CL2  DIF  3033       0.567  33.171 233.301  1.00 20.00    -0.082 Cl
HETATM   13  C6  DIF  3033       3.508  31.056 234.874  1.00 20.00     0.003 A 
HETATM   14  C5  DIF  3033       3.962  31.825 235.946  1.00 20.00     0.026 A 
HETATM   15  C4  DIF  3033       3.302  33.022 236.281  1.00 20.00     0.062 A 
HETATM   16 CL4  DIF  3033       3.921  33.902 237.629  1.00 20.00    -0.082 Cl
ENDBRANCH   7   9
ENDBRANCH   2   7
BRANCH   1  17
HETATM   17  C13 DIF  3033       2.837  37.337 237.218  1.00 20.00     0.098 C 
BRANCH  17  18
HETATM   18  C14 DIF  3033       3.926  37.361 238.227  1.00 20.00     0.199 C 
HETATM   19  O2  DIF  3033       5.082  37.280 237.541  1.00 20.00    -0.644 OA
HETATM   20  O1  DIF  3033       3.868  37.243 239.448  1.00 20.00    -0.644 OA
ENDBRANCH  17  18
ENDBRANCH   1  17
TORSDOF 4
ENDMDL
MODEL 3
REMARK VINA RESULT:      -6.4      1.821      5.498
REMARK  4 active torsions:
REMARK  status: ('A' for Active; 'I' for Inactive)
REMARK    1  A    between atoms: C3_4  and  N1_9 
REMARK    2  A    between atoms: C8_12  and  N1_9 
REMARK    3  A    between atoms: C13_17  and  C7_11 
REMARK    4  A    between atoms: C13_17  and  C14_18 
ROOT
HETATM    1  C7  DIF  3033       4.395  32.351 237.576  1.00 20.00    -0.003 A 
HETATM    2  C8  DIF  3033       3.375  32.916 236.771  1.00 20.00     0.043 A 
HETATM    3  C9  DIF  3033       3.078  32.338 235.532  1.00 20.00     0.030 A 
HETATM    4  C10 DIF  3033       3.795  31.231 235.072  1.00 20.00     0.002 A 
HETATM    5  C11 DIF  3033       4.823  30.694 235.840  1.00 20.00     0.001 A 
HETATM    6  C12 DIF  3033       5.119  31.253 237.081  1.00 20.00     0.014 A 
ENDROOT
BRANCH   2   7
HETATM    7  N1  DIF  3033       2.564  33.987 237.200  1.00 20.00    -0.353 N 
ATOM      8  H1  DIF  3033       2.388  33.863 238.197  1.00  0.00     0.166 HD
BRANCH   7   9
HETATM    9  C3  DIF  3033       1.877  35.206 236.772  1.00 20.00     0.076 A 
HETATM   10  C2  DIF  3033       0.471  35.320 236.633  1.00 20.00     0.062 A 
HETATM   11  C1  DIF  3033      -0.176  36.573 236.729  1.00 20.00     0.026 A 
HETATM   12 CL2  DIF  3033      -0.600  33.982 236.550  1.00 20.00    -0.082 Cl
HETATM   13  C6  DIF  3033       0.552  37.736 236.976  1.00 20.00     0.003 A 
HETATM   14  C5  DIF  3033       1.936  37.665 237.129  1.00 20.00     0.026 A 
HETATM   15  C4  DIF  3033       2.593  36.425 237.020  1.00 20.00     0.062 A 
HETATM   16 CL4  DIF  3033       4.308  36.432 237.210  1.00 20.00    -0.082 Cl
ENDBRANCH   7   9
ENDBRANCH   2   7
BRANCH   1  17
HETATM   17  C13 DIF  3033       4.683  32.787 238.974  1.00 20.00     0.098 C 
BRANCH  17  18
HETATM   18  C14 DIF  3033       4.938  33.870 239.958  1.00 20.00     0.199 C 
HETATM   19  O2  DIF  3033       3.793  34.573 240.053  1.00 20.00    -0.644 OA
HETATM   20  O1  DIF  3033       5.997  34.254 240.446  1.00 20.00    -0.644 OA
ENDBRANCH  17  18
ENDBRANCH   1  17
TORSDOF 4
ENDMDL
MODEL 4
REMARK VINA RESULT:      -6.2      1.782      5.136
REMARK  4 active torsions:
REMARK  status: ('A' for Active; 'I' for Inactive)
REMARK    1  A    between atoms: C3_4  and  N1_9 
REMARK    2  A    between atoms: C8_12  and  N1_9 
REMARK    3  A    between atoms: C13_17  and  C7_11 
REMARK    4  A    between atoms: C13_17  and  C14_18 
ROOT
HETATM    1  C7  DIF  3033       4.186  33.105 237.592  1.00 20.00    -0.003 A 
HETATM    2  C8  DIF  3033       3.529  33.429 236.380  1.00 20.00     0.043 A 
HETATM    3  C9  DIF  3033       3.488  32.485 235.347  1.00 20.00     0.030 A 
HETATM    4  C10 DIF  3033       4.111  31.244 235.491  1.00 20.00     0.002 A 
HETATM    5  C11 DIF  3033       4.790  30.934 236.665  1.00 20.00     0.001 A 
HETATM    6  C12 DIF  3033       4.827  31.860 237.704  1.00 20.00     0.014 A 
ENDROOT
BRANCH   2   7
HETATM    7  N1  DIF  3033       2.818  34.633 236.190  1.00 20.00    -0.353 N 
ATOM      8  H1  DIF  3033       3.125  35.038 235.305  1.00  0.00     0.166 HD
BRANCH   7   9
HETATM    9  C3  DIF  3033       1.813  35.525 236.768  1.00 20.00     0.076 A 
HETATM   10  C2  DIF  3033       2.075  36.854 237.185  1.00 20.00     0.062 A 
HETATM   11  C1  DIF  3033       1.045  37.821 237.242  1.00 20.00     0.026 A 
HETATM   12 CL2  DIF  3033       3.646  37.486 237.457  1.00 20.00    -0.082 Cl
HETATM   13  C6  DIF  3033      -0.260  37.497 236.875  1.00 20.00     0.003 A 
HETATM   14  C5  DIF  3033      -0.558  36.203 236.449  1.00 20.00     0.026 A 
HETATM   15  C4  DIF  3033       0.457  35.228 236.403  1.00 20.00     0.062 A 
HETATM   16 CL4  DIF  3033      -0.002  33.650 235.876  1.00 20.00    -0.082 Cl
ENDBRANCH   7   9
ENDBRANCH   2   7
BRANCH   1  17
HETATM   17  C13 DIF  3033       4.152  33.970 238.809  1.00 20.00     0.098 C 
BRANCH  17  18
HETATM   18  C14 DIF  3033       4.840  34.571 239.979  1.00 20.00     0.199 C 
HETATM   19  O2  DIF  3033       4.080  35.610 240.374  1.00 20.00    -0.644 OA
HETATM   20  O1  DIF  3033       5.972  34.374 240.412  1.00 20.00    -0.644 OA
ENDBRANCH  17  18
ENDBRANCH   1  17
TORSDOF 4
ENDMDL
MODEL 5
REMARK VINA RESULT:      -6.2     10.262     11.315
REMARK  4 active torsions:
REMARK  status: ('A' for Active; 'I' for Inactive)
REMARK    1  A    between atoms: C3_4  and  N1_9 
REMARK    2  A    between atoms: C8_12  and  N1_9 
REMARK    3  A    between atoms: C13_17  and  C7_11 
REMARK    4  A    between atoms: C13_17  and  C14_18 
ROOT
HETATM    1  C7  DIF  3033       0.888  41.173 226.789  1.00 20.00    -0.003 A 
HETATM    2  C8  DIF  3033       1.859  40.226 227.198  1.00 20.00     0.043 A 
HETATM    3  C9  DIF  3033       2.975  40.657 227.924  1.00 20.00     0.030 A 
HETATM    4  C10 DIF  3033       3.152  42.009 228.223  1.00 20.00     0.002 A 
HETATM    5  C11 DIF  3033       2.221  42.949 227.792  1.00 20.00     0.001 A 
HETATM    6  C12 DIF  3033       1.100  42.532 227.079  1.00 20.00     0.014 A 
ENDROOT
BRANCH   2   7
HETATM    7  N1  DIF  3033       1.711  38.839 226.994  1.00 20.00    -0.353 N 
ATOM      8  H1  DIF  3033       1.528  38.687 226.003  1.00  0.00     0.166 HD
BRANCH   7   9
HETATM    9  C3  DIF  3033       1.718  37.532 227.653  1.00 20.00     0.076 A 
HETATM   10  C2  DIF  3033       0.552  36.852 228.086  1.00 20.00     0.062 A 
HETATM   11  C1  DIF  3033       0.533  35.446 228.228  1.00 20.00     0.026 A 
HETATM   12 CL2  DIF  3033      -0.981  37.598 228.278  1.00 20.00    -0.082 Cl
HETATM   13  C6  DIF  3033       1.661  34.683 227.933  1.00 20.00     0.003 A 
HETATM   14  C5  DIF  3033       2.825  35.312 227.494  1.00 20.00     0.026 A 
HETATM   15  C4  DIF  3033       2.861  36.713 227.364  1.00 20.00     0.062 A 
HETATM   16 CL4  DIF  3033       4.346  37.408 226.828  1.00 20.00    -0.082 Cl
ENDBRANCH   7   9
ENDBRANCH   2   7
BRANCH   1  17
HETATM   17  C13 DIF  3033      -0.412  40.804 226.153  1.00 20.00     0.098 C 
BRANCH  17  18
HETATM   18  C14 DIF  3033      -1.722  41.202 225.580  1.00 20.00     0.199 C 
HETATM   19  O2  DIF  3033      -2.395  41.826 226.566  1.00 20.00    -0.644 OA
HETATM   20  O1  DIF  3033      -2.251  40.871 224.521  1.00 20.00    -0.644 OA
ENDBRANCH  17  18
ENDBRANCH   1  17
TORSDOF 4
ENDMDL
MODEL 6
REMARK VINA RESULT:      -6.2      3.117      4.514
REMARK  4 active torsions:
REMARK  status: ('A' for Active; 'I' for Inactive)
REMARK    1  A    between atoms: C3_4  and  N1_9 
REMARK    2  A    between atoms: C8_12  and  N1_9 
REMARK    3  A    between atoms: C13_17  and  C7_11 
REMARK    4  A    between atoms: C13_17  and  C14_18 
ROOT
HETATM    1  C7  DIF  3033       1.915  37.174 236.529  1.00 20.00    -0.003 A 
HETATM    2  C8  DIF  3033       2.129  36.059 235.682  1.00 20.00     0.043 A 
HETATM    3  C9  DIF  3033       3.311  35.321 235.802  1.00 20.00     0.030 A 
HETATM    4  C10 DIF  3033       4.290  35.689 236.728  1.00 20.00     0.002 A 
HETATM    5  C11 DIF  3033       4.103  36.805 237.537  1.00 20.00     0.001 A 
HETATM    6  C12 DIF  3033       2.926  37.540 237.435  1.00 20.00     0.014 A 
ENDROOT
BRANCH   2   7
HETATM    7  N1  DIF  3033       1.156  35.587 234.776  1.00 20.00    -0.353 N 
ATOM      8  H1  DIF  3033       0.641  36.394 234.424  1.00  0.00     0.166 HD
BRANCH   7   9
HETATM    9  C3  DIF  3033       0.600  34.390 234.144  1.00 20.00     0.076 A 
HETATM   10  C2  DIF  3033       0.832  34.020 232.796  1.00 20.00     0.062 A 
HETATM   11  C1  DIF  3033       0.735  32.673 232.378  1.00 20.00     0.026 A 
HETATM   12 CL2  DIF  3033       1.446  35.084 231.599  1.00 20.00    -0.082 Cl
HETATM   13  C6  DIF  3033       0.418  31.664 233.286  1.00 20.00     0.003 A 
HETATM   14  C5  DIF  3033       0.192  31.985 234.624  1.00 20.00     0.026 A 
HETATM   15  C4  DIF  3033       0.271  33.324 235.049  1.00 20.00     0.062 A 
HETATM   16 CL4  DIF  3033      -0.036  33.632 236.719  1.00 20.00    -0.082 Cl
ENDBRANCH   7   9
ENDBRANCH   2   7
BRANCH   1  17
HETATM   17  C13 DIF  3033       0.630  37.930 236.596  1.00 20.00     0.098 C 
BRANCH  17  18
HETATM   18  C14 DIF  3033      -0.849  37.944 236.728  1.00 20.00     0.199 C 
HETATM   19  O2  DIF  3033      -1.297  36.835 236.110  1.00 20.00    -0.644 OA
HETATM   20  O1  DIF  3033      -1.596  38.846 237.098  1.00 20.00    -0.644 OA
ENDBRANCH  17  18
ENDBRANCH   1  17
TORSDOF 4
ENDMDL
MODEL 7
REMARK VINA RESULT:      -6.1      2.608      3.944
REMARK  4 active torsions:
REMARK  status: ('A' for Active; 'I' for Inactive)
REMARK    1  A    between atoms: C3_4  and  N1_9 
REMARK    2  A    between atoms: C8_12  and  N1_9 
REMARK    3  A    between atoms: C13_17  and  C7_11 
REMARK    4  A    between atoms: C13_17  and  C14_18 
ROOT
HETATM    1  C7  DIF  3033       2.316  36.934 237.355  1.00 20.00    -0.003 A 
HETATM    2  C8  DIF  3033       2.646  35.608 236.981  1.00 20.00     0.043 A 
HETATM    3  C9  DIF  3033       3.729  34.970 237.595  1.00 20.00     0.030 A 
HETATM    4  C10 DIF  3033       4.502  35.637 238.548  1.00 20.00     0.002 A 
HETATM    5  C11 DIF  3033       4.207  36.952 238.892  1.00 20.00     0.001 A 
HETATM    6  C12 DIF  3033       3.124  37.593 238.298  1.00 20.00     0.014 A 
ENDROOT
BRANCH   2   7
HETATM    7  N1  DIF  3033       1.869  34.850 236.081  1.00 20.00    -0.353 N 
ATOM      8  H1  DIF  3033       0.894  34.928 236.369  1.00  0.00     0.166 HD
BRANCH   7   9
HETATM    9  C3  DIF  3033       1.918  33.994 234.895  1.00 20.00     0.076 A 
HETATM   10  C2  DIF  3033       2.083  32.587 234.934  1.00 20.00     0.062 A 
HETATM   11  C1  DIF  3033       1.624  31.765 233.881  1.00 20.00     0.026 A 
HETATM   12 CL2  DIF  3033       2.646  31.723 236.305  1.00 20.00    -0.082 Cl
HETATM   13  C6  DIF  3033       0.980  32.315 232.774  1.00 20.00     0.003 A 
HETATM   14  C5  DIF  3033       0.788  33.694 232.700  1.00 20.00     0.026 A 
HETATM   15  C4  DIF  3033       1.255  34.525 233.736  1.00 20.00     0.062 A 
HETATM   16 CL4  DIF  3033       0.987  36.219 233.558  1.00 20.00    -0.082 Cl
ENDBRANCH   7   9
ENDBRANCH   2   7
BRANCH   1  17
HETATM   17  C13 DIF  3033       1.092  37.648 236.884  1.00 20.00     0.098 C 
BRANCH  17  18
HETATM   18  C14 DIF  3033      -0.385  37.722 236.759  1.00 20.00     0.199 C 
HETATM   19  O2  DIF  3033      -0.807  36.473 236.483  1.00 20.00    -0.644 OA
HETATM   20  O1  DIF  3033      -1.119  38.705 236.677  1.00 20.00    -0.644 OA
ENDBRANCH  17  18
ENDBRANCH   1  17
TORSDOF 4
ENDMDL
MODEL 8
REMARK VINA RESULT:      -5.9      9.974     11.648
REMARK  4 active torsions:
REMARK  status: ('A' for Active; 'I' for Inactive)
REMARK    1  A    between atoms: C3_4  and  N1_9 
REMARK    2  A    between atoms: C8_12  and  N1_9 
REMARK    3  A    between atoms: C13_17  and  C7_11 
REMARK    4  A    between atoms: C13_17  and  C14_18 
ROOT
HETATM    1  C7  DIF  3033       1.816  39.894 227.621  1.00 20.00    -0.003 A 
HETATM    2  C8  DIF  3033       0.624  40.414 228.182  1.00 20.00     0.043 A 
HETATM    3  C9  DIF  3033       0.565  41.765 228.540  1.00 20.00     0.030 A 
HETATM    4  C10 DIF  3033       1.676  42.595 228.377  1.00 20.00     0.002 A 
HETATM    5  C11 DIF  3033       2.863  42.082 227.862  1.00 20.00     0.001 A 
HETATM    6  C12 DIF  3033       2.930  40.742 227.490  1.00 20.00     0.014 A 
ENDROOT
BRANCH   2   7
HETATM    7  N1  DIF  3033      -0.558  39.655 228.309  1.00 20.00    -0.353 N 
ATOM      8  H1  DIF  3033      -0.385  38.922 228.997  1.00  0.00     0.166 HD
BRANCH   7   9
HETATM    9  C3  DIF  3033      -1.936  39.510 227.838  1.00 20.00     0.076 A 
HETATM   10  C2  DIF  3033      -2.446  40.124 226.667  1.00 20.00     0.062 A 
HETATM   11  C1  DIF  3033      -3.554  39.582 225.977  1.00 20.00     0.026 A 
HETATM   12 CL2  DIF  3033      -1.681  41.425 225.852  1.00 20.00    -0.082 Cl
HETATM   13  C6  DIF  3033      -4.173  38.416 226.425  1.00 20.00     0.003 A 
HETATM   14  C5  DIF  3033      -3.696  37.775 227.567  1.00 20.00     0.026 A 
HETATM   15  C4  DIF  3033      -2.602  38.314 228.271  1.00 20.00     0.062 A 
HETATM   16 CL4  DIF  3033      -2.087  37.464 229.681  1.00 20.00    -0.082 Cl
ENDBRANCH   7   9
ENDBRANCH   2   7
BRANCH   1  17
HETATM   17  C13 DIF  3033       1.936  38.516 227.059  1.00 20.00     0.098 C 
BRANCH  17  18
HETATM   18  C14 DIF  3033       1.766  37.048 227.204  1.00 20.00     0.199 C 
HETATM   19  O2  DIF  3033       0.825  36.867 228.151  1.00 20.00    -0.644 OA
HETATM   20  O1  DIF  3033       2.455  36.131 226.768  1.00 20.00    -0.644 OA
ENDBRANCH  17  18
ENDBRANCH   1  17
TORSDOF 4
ENDMDL
MODEL 9
REMARK VINA RESULT:      -5.9      8.574      9.762
REMARK  4 active torsions:
REMARK  status: ('A' for Active; 'I' for Inactive)
REMARK    1  A    between atoms: C3_4  and  N1_9 
REMARK    2  A    between atoms: C8_12  and  N1_9 
REMARK    3  A    between atoms: C13_17  and  C7_11 
REMARK    4  A    between atoms: C13_17  and  C14_18 
ROOT
HETATM    1  C7  DIF  3033      -2.502  38.940 227.531  1.00 20.00    -0.003 A 
HETATM    2  C8  DIF  3033      -2.460  37.715 228.241  1.00 20.00     0.043 A 
HETATM    3  C9  DIF  3033      -3.489  36.783 228.065  1.00 20.00     0.030 A 
HETATM    4  C10 DIF  3033      -4.566  37.061 227.220  1.00 20.00     0.002 A 
HETATM    5  C11 DIF  3033      -4.631  38.278 226.548  1.00 20.00     0.001 A 
HETATM    6  C12 DIF  3033      -3.608  39.208 226.706  1.00 20.00     0.014 A 
ENDROOT
BRANCH   2   7
HETATM    7  N1  DIF  3033      -1.372  37.336 229.054  1.00 20.00    -0.353 N 
ATOM      8  H1  DIF  3033      -0.902  38.188 229.361  1.00  0.00     0.166 HD
BRANCH   7   9
HETATM    9  C3  DIF  3033      -0.655  36.197 229.628  1.00 20.00     0.076 A 
HETATM   10  C2  DIF  3033       0.573  35.695 229.128  1.00 20.00     0.062 A 
HETATM   11  C1  DIF  3033       1.466  34.981 229.958  1.00 20.00     0.026 A 
HETATM   12 CL2  DIF  3033       1.200  36.061 227.574  1.00 20.00    -0.082 Cl
HETATM   13  C6  DIF  3033       1.170  34.760 231.302  1.00 20.00     0.003 A 
HETATM   14  C5  DIF  3033      -0.023  35.246 231.836  1.00 20.00     0.026 A 
HETATM   15  C4  DIF  3033      -0.927  35.945 231.015  1.00 20.00     0.062 A 
HETATM   16 CL4  DIF  3033      -2.384  36.499 231.755  1.00 20.00    -0.082 Cl
ENDBRANCH   7   9
ENDBRANCH   2   7
BRANCH   1  17
HETATM   17  C13 DIF  3033      -1.384  39.930 227.521  1.00 20.00     0.098 C 
BRANCH  17  18
HETATM   18  C14 DIF  3033      -0.906  41.331 227.632  1.00 20.00     0.199 C 
HETATM   19  O2  DIF  3033      -0.804  41.594 228.949  1.00 20.00    -0.644 OA
HETATM   20  O1  DIF  3033      -0.822  42.204 226.772  1.00 20.00    -0.644 OA
ENDBRANCH  17  18
ENDBRANCH   1  17
TORSDOF 4
ENDMDL
