MODEL 1
REMARK VINA RESULT:      -6.0      0.000      0.000
REMARK  17 active torsions:
REMARK  status: ('A' for Active; 'I' for Inactive)
REMARK    1  A    between atoms: C1_1  and  O9_42 
REMARK    2  A    between atoms: C2_2  and  O6_36 
REMARK    3  A    between atoms: C3_3  and  O7_38 
REMARK    4  A    between atoms: C4_4  and  O8_40 
REMARK    5  A    between atoms: C5_5  and  C6_6 
REMARK    6  A    between atoms: C6_6  and  N1_19 
REMARK    7  A    between atoms: C7_7  and  N3_27 
REMARK    8  A    between atoms: C8_8  and  O11_45 
REMARK    9  A    between atoms: C9_9  and  O10_43 
REMARK   10  A    between atoms: C10_10  and  O9_42 
REMARK   11  A    between atoms: C11_11  and  N2_23 
REMARK   12  A    between atoms: C13_13  and  O11_45 
REMARK   13  A    between atoms: C14_14  and  O13_47 
REMARK   14  A    between atoms: C15_15  and  N4_31 
REMARK   15  A    between atoms: C16_16  and  O14_49 
REMARK   16  A    between atoms: C17_17  and  C18_18 
REMARK   17  A    between atoms: C18_18  and  O15_51 
ROOT
HETATM    1  C7  KAN  4699       2.624  36.367 227.300  1.00 20.00     0.217 C 
HETATM    2  C8  KAN  4699       1.284  37.100 227.461  1.00 20.00     0.186 C 
HETATM    3  C9  KAN  4699       0.492  36.437 228.611  1.00 20.00     0.180 C 
HETATM    4  C10 KAN  4699       0.233  34.951 228.266  1.00 20.00     0.186 C 
HETATM    5  C11 KAN  4699       1.608  34.231 228.105  1.00 20.00     0.217 C 
HETATM    6  C12 KAN  4699       2.423  34.907 226.976  1.00 20.00     0.071 C 
ENDROOT
BRANCH   2   7
HETATM    7  O11 KAN  4699       1.498  38.486 227.790  1.00 20.00    -0.349 OA
BRANCH   7   8
HETATM    8  C13 KAN  4699       1.058  39.476 226.798  1.00 20.00     0.291 C 
HETATM    9  O12 KAN  4699      -0.246  39.930 227.135  1.00 20.00    -0.349 OA
HETATM   10  C17 KAN  4699      -0.459  40.562 228.406  1.00 20.00     0.179 C 
HETATM   11  C16 KAN  4699       0.376  41.813 228.448  1.00 20.00     0.182 C 
HETATM   12  C15 KAN  4699       1.852  41.367 228.229  1.00 20.00     0.248 C 
HETATM   13  C14 KAN  4699       1.994  40.676 226.855  1.00 20.00     0.206 C 
BRANCH  10  14
HETATM   14  C18 KAN  4699      -1.974  40.777 228.614  1.00 20.00     0.198 C 
BRANCH  14  15
HETATM   15  O15 KAN  4699      -2.633  39.482 228.726  1.00 20.00    -0.398 OA
ATOM     16  H15 KAN  4699      -2.410  39.086 229.560  1.00  0.00     0.209 HD
ENDBRANCH  14  15
ENDBRANCH  10  14
BRANCH  11  17
HETATM   17  O14 KAN  4699       0.245  42.416 229.713  1.00 20.00    -0.391 OA
ATOM     18  H14 KAN  4699      -0.212  41.827 230.302  1.00  0.00     0.210 HD
ENDBRANCH  11  17
BRANCH  12  19
HETATM   19  N4  KAN  4699       2.800  42.471 228.419  1.00 20.00    -0.070 N 
ATOM     20  H43 KAN  4699       3.729  42.117 228.646  1.00  0.00     0.274 HD
ATOM     21  H42 KAN  4699       3.007  42.929 227.532  1.00  0.00     0.274 HD
ATOM     22  H41 KAN  4699       2.490  43.150 229.115  1.00  0.00     0.274 HD
ENDBRANCH  12  19
BRANCH  13  23
HETATM   23  O13 KAN  4699       3.315  40.251 226.669  1.00 20.00    -0.388 OA
ATOM     24  H13 KAN  4699       3.663  40.632 225.872  1.00  0.00     0.210 HD
ENDBRANCH  13  23
ENDBRANCH   7   8
ENDBRANCH   2   7
BRANCH   1  25
HETATM   25  N3  KAN  4699       3.436  37.078 226.224  1.00 20.00    -0.072 N 
ATOM     26  H33 KAN  4699       4.322  37.422 226.594  1.00  0.00     0.274 HD
ATOM     27  H32 KAN  4699       3.796  36.419 225.534  1.00  0.00     0.274 HD
ATOM     28  H31 KAN  4699       2.902  37.825 225.781  1.00  0.00     0.274 HD
ENDBRANCH   1  25
BRANCH   3  29
HETATM   29  O10 KAN  4699      -0.801  37.156 228.730  1.00 20.00    -0.390 OA
ATOM     30  H10 KAN  4699      -1.013  37.284 229.647  1.00  0.00     0.210 HD
ENDBRANCH   3  29
BRANCH   4  31
HETATM   31  O9  KAN  4699      -0.299  34.284 229.428  1.00 20.00    -0.349 OA
BRANCH  31  32
HETATM   32  C1  KAN  4699       0.379  34.347 230.698  1.00 20.00     0.292 C 
HETATM   33  O5  KAN  4699      -0.170  35.423 231.399  1.00 20.00    -0.349 OA
HETATM   34  C5  KAN  4699      -1.528  35.342 231.847  1.00 20.00     0.181 C 
HETATM   35  C4  KAN  4699      -1.866  34.039 232.512  1.00 20.00     0.180 C 
HETATM   36  C3  KAN  4699      -1.378  32.931 231.605  1.00 20.00     0.183 C 
HETATM   37  C2  KAN  4699       0.137  33.047 231.451  1.00 20.00     0.204 C 
BRANCH  34  38
HETATM   38  C6  KAN  4699      -1.922  36.553 232.738  1.00 20.00     0.264 C 
BRANCH  38  39
HETATM   39  N1  KAN  4699      -1.714  36.133 234.171  1.00 20.00    -0.077 N 
ATOM     40  H13 KAN  4699      -0.778  35.768 234.349  1.00  0.00     0.274 HD
ATOM     41  H12 KAN  4699      -1.672  36.921 234.817  1.00  0.00     0.274 HD
ATOM     42  H11 KAN  4699      -2.453  35.468 234.399  1.00  0.00     0.274 HD
ENDBRANCH  38  39
ENDBRANCH  34  38
BRANCH  35  43
HETATM   43  O8  KAN  4699      -3.277  34.011 232.613  1.00 20.00    -0.390 OA
ATOM     44  H8  KAN  4699      -3.615  33.175 232.314  1.00  0.00     0.210 HD
ENDBRANCH  35  43
BRANCH  36  45
HETATM   45  O7  KAN  4699      -1.739  31.672 232.237  1.00 20.00    -0.390 OA
ATOM     46  H7  KAN  4699      -1.038  31.038 232.149  1.00  0.00     0.210 HD
ENDBRANCH  36  45
BRANCH  37  47
HETATM   47  O6  KAN  4699       0.628  31.947 230.639  1.00 20.00    -0.388 OA
ATOM     48  H6  KAN  4699       1.430  32.223 230.213  1.00  0.00     0.210 HD
ENDBRANCH  37  47
ENDBRANCH  31  32
ENDBRANCH   4  31
BRANCH   5  49
HETATM   49  N2  KAN  4699       1.348  32.823 227.760  1.00 20.00    -0.072 N 
ATOM     50  H23 KAN  4699       0.934  32.298 228.530  1.00  0.00     0.274 HD
ATOM     51  H22 KAN  4699       0.584  32.715 227.093  1.00  0.00     0.274 HD
ATOM     52  H21 KAN  4699       2.221  32.412 227.428  1.00  0.00     0.274 HD
ENDBRANCH   5  49
TORSDOF 17
ENDMDL
MODEL 2
REMARK VINA RESULT:      -5.7      7.697     11.279
REMARK  17 active torsions:
REMARK  status: ('A' for Active; 'I' for Inactive)
REMARK    1  A    between atoms: C1_1  and  O9_42 
REMARK    2  A    between atoms: C2_2  and  O6_36 
REMARK    3  A    between atoms: C3_3  and  O7_38 
REMARK    4  A    between atoms: C4_4  and  O8_40 
REMARK    5  A    between atoms: C5_5  and  C6_6 
REMARK    6  A    between atoms: C6_6  and  N1_19 
REMARK    7  A    between atoms: C7_7  and  N3_27 
REMARK    8  A    between atoms: C8_8  and  O11_45 
REMARK    9  A    between atoms: C9_9  and  O10_43 
REMARK   10  A    between atoms: C10_10  and  O9_42 
REMARK   11  A    between atoms: C11_11  and  N2_23 
REMARK   12  A    between atoms: C13_13  and  O11_45 
REMARK   13  A    between atoms: C14_14  and  O13_47 
REMARK   14  A    between atoms: C15_15  and  N4_31 
REMARK   15  A    between atoms: C16_16  and  O14_49 
REMARK   16  A    between atoms: C17_17  and  C18_18 
REMARK   17  A    between atoms: C18_18  and  O15_51 
ROOT
HETATM    1  C7  KAN  4699       4.344  36.525 237.735  1.00 20.00     0.217 C 
HETATM    2  C8  KAN  4699       3.626  35.567 238.699  1.00 20.00     0.186 C 
HETATM    3  C9  KAN  4699       2.474  34.872 237.939  1.00 20.00     0.180 C 
HETATM    4  C10 KAN  4699       1.477  35.940 237.430  1.00 20.00     0.186 C 
HETATM    5  C11 KAN  4699       2.230  36.900 236.457  1.00 20.00     0.217 C 
HETATM    6  C12 KAN  4699       3.407  37.579 237.200  1.00 20.00     0.071 C 
ENDROOT
BRANCH   2   7
HETATM    7  O11 KAN  4699       4.533  34.558 239.183  1.00 20.00    -0.349 OA
BRANCH   7   8
HETATM    8  C13 KAN  4699       4.575  34.349 240.636  1.00 20.00     0.291 C 
HETATM    9  O12 KAN  4699       3.801  33.203 240.968  1.00 20.00    -0.349 OA
HETATM   10  C17 KAN  4699       4.156  31.933 240.401  1.00 20.00     0.179 C 
HETATM   11  C16 KAN  4699       5.537  31.580 240.882  1.00 20.00     0.182 C 
HETATM   12  C15 KAN  4699       6.474  32.736 240.421  1.00 20.00     0.248 C 
HETATM   13  C14 KAN  4699       6.013  34.069 241.049  1.00 20.00     0.206 C 
BRANCH  10  14
HETATM   14  C18 KAN  4699       3.058  30.903 240.747  1.00 20.00     0.198 C 
BRANCH  14  15
HETATM   15  O15 KAN  4699       1.750  31.537 240.636  1.00 20.00    -0.398 OA
ATOM     16  H15 KAN  4699       1.359  31.306 239.802  1.00  0.00     0.209 HD
ENDBRANCH  14  15
ENDBRANCH  10  14
BRANCH  11  17
HETATM   17  O14 KAN  4699       5.943  30.373 240.283  1.00 20.00    -0.391 OA
ATOM     18  H14 KAN  4699       6.600  30.550 239.620  1.00  0.00     0.210 HD
ENDBRANCH  11  17
BRANCH  12  19
HETATM   19  N4  KAN  4699       7.888  32.438 240.673  1.00 20.00    -0.070 N 
ATOM     20  H43 KAN  4699       8.113  32.552 241.661  1.00  0.00     0.274 HD
ATOM     21  H42 KAN  4699       8.072  31.440 240.573  1.00  0.00     0.274 HD
ATOM     22  H41 KAN  4699       8.523  32.985 240.091  1.00  0.00     0.274 HD
ENDBRANCH  12  19
BRANCH  13  23
HETATM   23  O13 KAN  4699       6.839  35.112 240.614  1.00 20.00    -0.388 OA
ATOM     24  H13 KAN  4699       7.701  34.772 240.407  1.00  0.00     0.210 HD
ENDBRANCH  13  23
ENDBRANCH   7   8
ENDBRANCH   2   7
BRANCH   1  25
HETATM   25  N3  KAN  4699       5.531  37.142 238.465  1.00 20.00    -0.072 N 
ATOM     26  H33 KAN  4699       6.357  37.175 237.868  1.00  0.00     0.274 HD
ATOM     27  H32 KAN  4699       5.399  38.143 238.609  1.00  0.00     0.274 HD
ATOM     28  H31 KAN  4699       5.725  36.663 239.344  1.00  0.00     0.274 HD
ENDBRANCH   1  25
BRANCH   3  29
HETATM   29  O10 KAN  4699       1.792  33.969 238.899  1.00 20.00    -0.390 OA
ATOM     30  H10 KAN  4699       1.538  34.457 239.673  1.00  0.00     0.210 HD
ENDBRANCH   3  29
BRANCH   4  31
HETATM   31  O9  KAN  4699       0.535  35.316 236.535  1.00 20.00    -0.349 OA
BRANCH  31  32
HETATM   32  C1  KAN  4699      -0.884  35.424 236.755  1.00 20.00     0.292 C 
HETATM   33  O5  KAN  4699      -1.427  36.031 235.620  1.00 20.00    -0.349 OA
HETATM   34  C5  KAN  4699      -1.423  35.315 234.379  1.00 20.00     0.181 C 
HETATM   35  C4  KAN  4699      -1.888  33.893 234.502  1.00 20.00     0.180 C 
HETATM   36  C3  KAN  4699      -1.129  33.270 235.653  1.00 20.00     0.183 C 
HETATM   37  C2  KAN  4699      -1.463  34.028 236.935  1.00 20.00     0.204 C 
BRANCH  34  38
HETATM   38  C6  KAN  4699      -2.200  36.072 233.267  1.00 20.00     0.264 C 
BRANCH  38  39
HETATM   39  N1  KAN  4699      -1.193  36.898 232.507  1.00 20.00    -0.077 N 
ATOM     40  H13 KAN  4699      -0.611  37.475 233.114  1.00  0.00     0.274 HD
ATOM     41  H12 KAN  4699      -0.444  36.340 232.099  1.00  0.00     0.274 HD
ATOM     42  H11 KAN  4699      -1.711  37.439 231.815  1.00  0.00     0.274 HD
ENDBRANCH  38  39
ENDBRANCH  34  38
BRANCH  35  43
HETATM   43  O8  KAN  4699      -1.540  33.266 233.282  1.00 20.00    -0.390 OA
ATOM     44  H8  KAN  4699      -2.257  32.727 232.969  1.00  0.00     0.210 HD
ENDBRANCH  35  43
BRANCH  36  45
HETATM   45  O7  KAN  4699      -1.557  31.883 235.746  1.00 20.00    -0.390 OA
ATOM     46  H7  KAN  4699      -1.036  31.412 236.384  1.00  0.00     0.210 HD
ENDBRANCH  36  45
BRANCH  37  47
HETATM   47  O6  KAN  4699      -0.796  33.396 238.061  1.00 20.00    -0.388 OA
ATOM     48  H6  KAN  4699      -0.470  34.076 238.638  1.00  0.00     0.210 HD
ENDBRANCH  37  47
ENDBRANCH  31  32
ENDBRANCH   4  31
BRANCH   5  49
HETATM   49  N2  KAN  4699       1.276  37.922 235.993  1.00 20.00    -0.072 N 
ATOM     50  H23 KAN  4699       0.528  37.532 235.421  1.00  0.00     0.274 HD
ATOM     51  H22 KAN  4699       0.696  38.290 236.747  1.00  0.00     0.274 HD
ATOM     52  H21 KAN  4699       1.802  38.651 235.510  1.00  0.00     0.274 HD
ENDBRANCH   5  49
TORSDOF 17
ENDMDL
MODEL 3
REMARK VINA RESULT:      -5.6      6.239      9.463
REMARK  17 active torsions:
REMARK  status: ('A' for Active; 'I' for Inactive)
REMARK    1  A    between atoms: C1_1  and  O9_42 
REMARK    2  A    between atoms: C2_2  and  O6_36 
REMARK    3  A    between atoms: C3_3  and  O7_38 
REMARK    4  A    between atoms: C4_4  and  O8_40 
REMARK    5  A    between atoms: C5_5  and  C6_6 
REMARK    6  A    between atoms: C6_6  and  N1_19 
REMARK    7  A    between atoms: C7_7  and  N3_27 
REMARK    8  A    between atoms: C8_8  and  O11_45 
REMARK    9  A    between atoms: C9_9  and  O10_43 
REMARK   10  A    between atoms: C10_10  and  O9_42 
REMARK   11  A    between atoms: C11_11  and  N2_23 
REMARK   12  A    between atoms: C13_13  and  O11_45 
REMARK   13  A    between atoms: C14_14  and  O13_47 
REMARK   14  A    between atoms: C15_15  and  N4_31 
REMARK   15  A    between atoms: C16_16  and  O14_49 
REMARK   16  A    between atoms: C17_17  and  C18_18 
REMARK   17  A    between atoms: C18_18  and  O15_51 
ROOT
HETATM    1  C7  KAN  4699       1.301  37.026 236.842  1.00 20.00     0.217 C 
HETATM    2  C8  KAN  4699       1.682  36.048 235.719  1.00 20.00     0.186 C 
HETATM    3  C9  KAN  4699       2.364  34.813 236.351  1.00 20.00     0.180 C 
HETATM    4  C10 KAN  4699       3.639  35.260 237.105  1.00 20.00     0.186 C 
HETATM    5  C11 KAN  4699       3.226  36.254 238.234  1.00 20.00     0.217 C 
HETATM    6  C12 KAN  4699       2.513  37.481 237.616  1.00 20.00     0.071 C 
ENDROOT
BRANCH   2   7
HETATM    7  O11 KAN  4699       0.509  35.610 235.007  1.00 20.00    -0.349 OA
BRANCH   7   8
HETATM    8  C13 KAN  4699       0.489  35.850 233.558  1.00 20.00     0.291 C 
HETATM    9  O12 KAN  4699       0.881  34.664 232.880  1.00 20.00    -0.349 OA
HETATM   10  C17 KAN  4699       0.112  33.467 233.066  1.00 20.00     0.179 C 
HETATM   11  C16 KAN  4699      -1.280  33.725 232.555  1.00 20.00     0.182 C 
HETATM   12  C15 KAN  4699      -1.830  34.936 233.366  1.00 20.00     0.248 C 
HETATM   13  C14 KAN  4699      -0.937  36.174 233.134  1.00 20.00     0.206 C 
BRANCH  10  14
HETATM   14  C18 KAN  4699       0.848  32.286 232.396  1.00 20.00     0.198 C 
BRANCH  14  15
HETATM   15  O15 KAN  4699       0.577  31.064 233.141  1.00 20.00    -0.398 OA
ATOM     16  H15 KAN  4699       1.058  31.081 233.960  1.00  0.00     0.209 HD
ENDBRANCH  14  15
ENDBRANCH  10  14
BRANCH  11  17
HETATM   17  O14 KAN  4699      -2.079  32.592 232.793  1.00 20.00    -0.391 OA
ATOM     18  H14 KAN  4699      -2.229  32.129 231.977  1.00  0.00     0.210 HD
ENDBRANCH  11  17
BRANCH  12  19
HETATM   19  N4  KAN  4699      -3.249  35.189 233.091  1.00 20.00    -0.070 N 
ATOM     20  H43 KAN  4699      -3.401  36.164 232.834  1.00  0.00     0.274 HD
ATOM     21  H42 KAN  4699      -3.536  34.739 232.222  1.00  0.00     0.274 HD
ATOM     22  H41 KAN  4699      -3.861  34.916 233.860  1.00  0.00     0.274 HD
ENDBRANCH  12  19
BRANCH  13  23
HETATM   23  O13 KAN  4699      -1.416  37.255 233.883  1.00 20.00    -0.388 OA
ATOM     24  H13 KAN  4699      -0.696  37.666 234.347  1.00  0.00     0.210 HD
ENDBRANCH  13  23
ENDBRANCH   7   8
ENDBRANCH   2   7
BRANCH   1  25
HETATM   25  N3  KAN  4699       0.552  38.200 236.223  1.00 20.00    -0.072 N 
ATOM     26  H33 KAN  4699      -0.431  38.199 236.495  1.00  0.00     0.274 HD
ATOM     27  H32 KAN  4699       0.833  39.084 236.646  1.00  0.00     0.274 HD
ATOM     28  H31 KAN  4699       0.658  38.223 235.209  1.00  0.00     0.274 HD
ENDBRANCH   1  25
BRANCH   3  29
HETATM   29  O10 KAN  4699       2.734  33.897 235.243  1.00 20.00    -0.390 OA
ATOM     30  H10 KAN  4699       3.229  34.371 234.587  1.00  0.00     0.210 HD
ENDBRANCH   3  29
BRANCH   4  31
HETATM   31  O9  KAN  4699       4.143  34.152 237.876  1.00 20.00    -0.349 OA
BRANCH  31  32
HETATM   32  C1  KAN  4699       3.252  33.279 238.596  1.00 20.00     0.292 C 
HETATM   33  O5  KAN  4699       2.948  32.215 237.743  1.00 20.00    -0.349 OA
HETATM   34  C5  KAN  4699       3.980  31.284 237.399  1.00 20.00     0.181 C 
HETATM   35  C4  KAN  4699       4.788  30.817 238.575  1.00 20.00     0.180 C 
HETATM   36  C3  KAN  4699       5.208  32.047 239.349  1.00 20.00     0.183 C 
HETATM   37  C2  KAN  4699       3.959  32.771 239.844  1.00 20.00     0.204 C 
BRANCH  34  38
HETATM   38  C6  KAN  4699       3.433  30.085 236.575  1.00 20.00     0.264 C 
BRANCH  38  39
HETATM   39  N1  KAN  4699       2.672  30.661 235.408  1.00 20.00    -0.077 N 
ATOM     40  H13 KAN  4699       2.081  29.976 234.939  1.00  0.00     0.274 HD
ATOM     41  H12 KAN  4699       1.930  31.302 235.691  1.00  0.00     0.274 HD
ATOM     42  H11 KAN  4699       3.357  31.092 234.787  1.00  0.00     0.274 HD
ENDBRANCH  38  39
ENDBRANCH  34  38
BRANCH  35  43
HETATM   43  O8  KAN  4699       5.919  30.163 238.032  1.00 20.00    -0.390 OA
ATOM     44  H8  KAN  4699       5.652  29.497 237.409  1.00  0.00     0.210 HD
ENDBRANCH  35  43
BRANCH  36  45
HETATM   45  O7  KAN  4699       6.019  31.592 240.467  1.00 20.00    -0.390 OA
ATOM     46  H7  KAN  4699       5.470  31.307 241.187  1.00  0.00     0.210 HD
ENDBRANCH  36  45
BRANCH  37  47
HETATM   47  O6  KAN  4699       4.348  33.916 240.649  1.00 20.00    -0.388 OA
ATOM     48  H6  KAN  4699       4.501  34.653 240.069  1.00  0.00     0.210 HD
ENDBRANCH  37  47
ENDBRANCH  31  32
ENDBRANCH   4  31
BRANCH   5  49
HETATM   49  N2  KAN  4699       4.449  36.686 238.932  1.00 20.00    -0.072 N 
ATOM     50  H23 KAN  4699       4.456  37.686 239.132  1.00  0.00     0.274 HD
ATOM     51  H22 KAN  4699       4.492  36.353 239.896  1.00  0.00     0.274 HD
ATOM     52  H21 KAN  4699       5.253  36.390 238.377  1.00  0.00     0.274 HD
ENDBRANCH   5  49
TORSDOF 17
ENDMDL
MODEL 4
REMARK VINA RESULT:      -5.6      7.420     11.141
REMARK  17 active torsions:
REMARK  status: ('A' for Active; 'I' for Inactive)
REMARK    1  A    between atoms: C1_1  and  O9_42 
REMARK    2  A    between atoms: C2_2  and  O6_36 
REMARK    3  A    between atoms: C3_3  and  O7_38 
REMARK    4  A    between atoms: C4_4  and  O8_40 
REMARK    5  A    between atoms: C5_5  and  C6_6 
REMARK    6  A    between atoms: C6_6  and  N1_19 
REMARK    7  A    between atoms: C7_7  and  N3_27 
REMARK    8  A    between atoms: C8_8  and  O11_45 
REMARK    9  A    between atoms: C9_9  and  O10_43 
REMARK   10  A    between atoms: C10_10  and  O9_42 
REMARK   11  A    between atoms: C11_11  and  N2_23 
REMARK   12  A    between atoms: C13_13  and  O11_45 
REMARK   13  A    between atoms: C14_14  and  O13_47 
REMARK   14  A    between atoms: C15_15  and  N4_31 
REMARK   15  A    between atoms: C16_16  and  O14_49 
REMARK   16  A    between atoms: C17_17  and  C18_18 
REMARK   17  A    between atoms: C18_18  and  O15_51 
ROOT
HETATM    1  C7  KAN  4699       4.225  36.499 237.742  1.00 20.00     0.217 C 
HETATM    2  C8  KAN  4699       3.452  35.423 238.521  1.00 20.00     0.186 C 
HETATM    3  C9  KAN  4699       2.364  34.830 237.596  1.00 20.00     0.180 C 
HETATM    4  C10 KAN  4699       1.394  35.953 237.159  1.00 20.00     0.186 C 
HETATM    5  C11 KAN  4699       2.202  37.032 236.376  1.00 20.00     0.217 C 
HETATM    6  C12 KAN  4699       3.315  37.612 237.282  1.00 20.00     0.071 C 
ENDROOT
BRANCH   2   7
HETATM    7  O11 KAN  4699       4.334  34.362 238.933  1.00 20.00    -0.349 OA
BRANCH   7   8
HETATM    8  C13 KAN  4699       4.303  33.992 240.354  1.00 20.00     0.291 C 
HETATM    9  O12 KAN  4699       3.523  32.815 240.516  1.00 20.00    -0.349 OA
HETATM   10  C17 KAN  4699       3.917  31.617 239.831  1.00 20.00     0.179 C 
HETATM   11  C16 KAN  4699       5.276  31.216 240.340  1.00 20.00     0.182 C 
HETATM   12  C15 KAN  4699       6.225  32.419 240.059  1.00 20.00     0.248 C 
HETATM   13  C14 KAN  4699       5.721  33.672 240.808  1.00 20.00     0.206 C 
BRANCH  10  14
HETATM   14  C18 KAN  4699       2.812  30.552 240.003  1.00 20.00     0.198 C 
BRANCH  14  15
HETATM   15  O15 KAN  4699       1.519  31.144 239.690  1.00 20.00    -0.398 OA
ATOM     16  H15 KAN  4699       1.649  31.921 239.158  1.00  0.00     0.209 HD
ENDBRANCH  14  15
ENDBRANCH  10  14
BRANCH  11  17
HETATM   17  O14 KAN  4699       5.722  30.085 239.632  1.00 20.00    -0.391 OA
ATOM     18  H14 KAN  4699       5.421  29.295 240.068  1.00  0.00     0.210 HD
ENDBRANCH  11  17
BRANCH  12  19
HETATM   19  N4  KAN  4699       7.627  32.099 240.349  1.00 20.00    -0.070 N 
ATOM     20  H43 KAN  4699       7.866  32.349 241.308  1.00  0.00     0.274 HD
ATOM     21  H42 KAN  4699       7.766  31.090 240.400  1.00  0.00     0.274 HD
ATOM     22  H41 KAN  4699       8.280  32.523 239.690  1.00  0.00     0.274 HD
ENDBRANCH  12  19
BRANCH  13  23
HETATM   23  O13 KAN  4699       6.559  34.760 240.534  1.00 20.00    -0.388 OA
ATOM     24  H13 KAN  4699       6.100  35.387 239.988  1.00  0.00     0.210 HD
ENDBRANCH  13  23
ENDBRANCH   7   8
ENDBRANCH   2   7
BRANCH   1  25
HETATM   25  N3  KAN  4699       5.350  37.020 238.628  1.00 20.00    -0.072 N 
ATOM     26  H33 KAN  4699       5.001  37.680 239.323  1.00  0.00     0.274 HD
ATOM     27  H32 KAN  4699       5.694  36.294 239.257  1.00  0.00     0.274 HD
ATOM     28  H31 KAN  4699       6.108  37.424 238.078  1.00  0.00     0.274 HD
ENDBRANCH   1  25
BRANCH   3  29
HETATM   29  O10 KAN  4699       1.627  33.808 238.381  1.00 20.00    -0.390 OA
ATOM     30  H10 KAN  4699       2.109  32.990 238.373  1.00  0.00     0.210 HD
ENDBRANCH   3  29
BRANCH   4  31
HETATM   31  O9  KAN  4699       0.524  35.447 236.127  1.00 20.00    -0.349 OA
BRANCH  31  32
HETATM   32  C1  KAN  4699       1.056  34.770 234.971  1.00 20.00     0.292 C 
HETATM   33  O5  KAN  4699       1.066  33.406 235.269  1.00 20.00    -0.349 OA
HETATM   34  C5  KAN  4699      -0.181  32.715 235.407  1.00 20.00     0.181 C 
HETATM   35  C4  KAN  4699      -1.164  33.020 234.314  1.00 20.00     0.180 C 
HETATM   36  C3  KAN  4699      -1.228  34.525 234.174  1.00 20.00     0.183 C 
HETATM   37  C2  KAN  4699       0.152  35.045 233.779  1.00 20.00     0.204 C 
BRANCH  34  38
HETATM   38  C6  KAN  4699       0.015  31.184 235.582  1.00 20.00     0.264 C 
BRANCH  38  39
HETATM   39  N1  KAN  4699       0.927  30.987 236.766  1.00 20.00    -0.077 N 
ATOM     40  H13 KAN  4699       0.852  31.735 237.457  1.00  0.00     0.274 HD
ATOM     41  H12 KAN  4699       0.636  30.220 237.373  1.00  0.00     0.274 HD
ATOM     42  H11 KAN  4699       1.872  30.872 236.401  1.00  0.00     0.274 HD
ENDBRANCH  38  39
ENDBRANCH  34  38
BRANCH  35  43
HETATM   43  O8  KAN  4699      -2.407  32.511 234.759  1.00 20.00    -0.390 OA
ATOM     44  H8  KAN  4699      -2.609  32.839 235.628  1.00  0.00     0.210 HD
ENDBRANCH  35  43
BRANCH  36  45
HETATM   45  O7  KAN  4699      -2.206  34.816 233.138  1.00 20.00    -0.390 OA
ATOM     46  H7  KAN  4699      -3.089  34.740 233.477  1.00  0.00     0.210 HD
ENDBRANCH  36  45
BRANCH  37  47
HETATM   47  O6  KAN  4699       0.089  36.482 233.572  1.00 20.00    -0.388 OA
ATOM     48  H6  KAN  4699       0.973  36.809 233.459  1.00  0.00     0.210 HD
ENDBRANCH  37  47
ENDBRANCH  31  32
ENDBRANCH   4  31
BRANCH   5  49
HETATM   49  N2  KAN  4699       1.271  38.104 235.981  1.00 20.00    -0.072 N 
ATOM     50  H23 KAN  4699       0.427  37.747 235.533  1.00  0.00     0.274 HD
ATOM     51  H22 KAN  4699       0.824  38.552 236.781  1.00  0.00     0.274 HD
ATOM     52  H21 KAN  4699       1.779  38.764 235.392  1.00  0.00     0.274 HD
ENDBRANCH   5  49
TORSDOF 17
ENDMDL
MODEL 5
REMARK VINA RESULT:      -5.6      3.164      4.412
REMARK  17 active torsions:
REMARK  status: ('A' for Active; 'I' for Inactive)
REMARK    1  A    between atoms: C1_1  and  O9_42 
REMARK    2  A    between atoms: C2_2  and  O6_36 
REMARK    3  A    between atoms: C3_3  and  O7_38 
REMARK    4  A    between atoms: C4_4  and  O8_40 
REMARK    5  A    between atoms: C5_5  and  C6_6 
REMARK    6  A    between atoms: C6_6  and  N1_19 
REMARK    7  A    between atoms: C7_7  and  N3_27 
REMARK    8  A    between atoms: C8_8  and  O11_45 
REMARK    9  A    between atoms: C9_9  and  O10_43 
REMARK   10  A    between atoms: C10_10  and  O9_42 
REMARK   11  A    between atoms: C11_11  and  N2_23 
REMARK   12  A    between atoms: C13_13  and  O11_45 
REMARK   13  A    between atoms: C14_14  and  O13_47 
REMARK   14  A    between atoms: C15_15  and  N4_31 
REMARK   15  A    between atoms: C16_16  and  O14_49 
REMARK   16  A    between atoms: C17_17  and  C18_18 
REMARK   17  A    between atoms: C18_18  and  O15_51 
ROOT
HETATM    1  C7  KAN  4699      -2.960  36.554 227.675  1.00 20.00     0.217 C 
HETATM    2  C8  KAN  4699      -2.597  37.674 228.663  1.00 20.00     0.186 C 
HETATM    3  C9  KAN  4699      -1.778  37.063 229.823  1.00 20.00     0.180 C 
HETATM    4  C10 KAN  4699      -2.628  35.990 230.543  1.00 20.00     0.186 C 
HETATM    5  C11 KAN  4699      -2.985  34.869 229.519  1.00 20.00     0.217 C 
HETATM    6  C12 KAN  4699      -3.780  35.475 228.337  1.00 20.00     0.071 C 
ENDROOT
BRANCH   2   7
HETATM    7  O11 KAN  4699      -1.799  38.683 228.017  1.00 20.00    -0.349 OA
BRANCH   7   8
HETATM    8  C13 KAN  4699      -2.192  40.080 228.240  1.00 20.00     0.291 C 
HETATM    9  O12 KAN  4699      -1.095  40.794 228.796  1.00 20.00    -0.349 OA
HETATM   10  C17 KAN  4699       0.134  40.870 228.058  1.00 20.00     0.179 C 
HETATM   11  C16 KAN  4699      -0.143  41.592 226.767  1.00 20.00     0.182 C 
HETATM   12  C15 KAN  4699      -1.246  40.774 226.032  1.00 20.00     0.248 C 
HETATM   13  C14 KAN  4699      -2.524  40.717 226.897  1.00 20.00     0.206 C 
BRANCH  10  14
HETATM   14  C18 KAN  4699       1.218  41.513 228.950  1.00 20.00     0.198 C 
BRANCH  14  15
HETATM   15  O15 KAN  4699       0.640  42.637 229.676  1.00 20.00    -0.398 OA
ATOM     16  H15 KAN  4699       0.069  42.308 230.362  1.00  0.00     0.209 HD
ENDBRANCH  14  15
ENDBRANCH  10  14
BRANCH  11  17
HETATM   17  O14 KAN  4699       1.028  41.617 225.988  1.00 20.00    -0.391 OA
ATOM     18  H14 KAN  4699       1.392  42.494 225.985  1.00  0.00     0.210 HD
ENDBRANCH  11  17
BRANCH  12  19
HETATM   19  N4  KAN  4699      -1.492  41.271 224.673  1.00 20.00    -0.070 N 
ATOM     20  H43 KAN  4699      -1.644  40.498 224.025  1.00  0.00     0.274 HD
ATOM     21  H42 KAN  4699      -2.405  41.722 224.611  1.00  0.00     0.274 HD
ATOM     22  H41 KAN  4699      -0.757  41.891 224.334  1.00  0.00     0.274 HD
ENDBRANCH  12  19
BRANCH  13  23
HETATM   23  O13 KAN  4699      -3.506  39.960 226.248  1.00 20.00    -0.388 OA
ATOM     24  H13 KAN  4699      -3.319  39.035 226.356  1.00  0.00     0.210 HD
ENDBRANCH  13  23
ENDBRANCH   7   8
ENDBRANCH   2   7
BRANCH   1  25
HETATM   25  N3  KAN  4699      -3.693  37.175 226.492  1.00 20.00    -0.072 N 
ATOM     26  H33 KAN  4699      -4.704  37.111 226.606  1.00  0.00     0.274 HD
ATOM     27  H32 KAN  4699      -3.597  38.190 226.486  1.00  0.00     0.274 HD
ATOM     28  H31 KAN  4699      -3.392  36.769 225.606  1.00  0.00     0.274 HD
ENDBRANCH   1  25
BRANCH   3  29
HETATM   29  O10 KAN  4699      -1.458  38.164 230.765  1.00 20.00    -0.390 OA
ATOM     30  H10 KAN  4699      -0.883  38.791 230.342  1.00  0.00     0.210 HD
ENDBRANCH   3  29
BRANCH   4  31
HETATM   31  O9  KAN  4699      -1.791  35.270 231.469  1.00 20.00    -0.349 OA
BRANCH  31  32
HETATM   32  C1  KAN  4699      -2.239  34.977 232.806  1.00 20.00     0.292 C 
HETATM   33  O5  KAN  4699      -2.123  33.596 232.980  1.00 20.00    -0.349 OA
HETATM   34  C5  KAN  4699      -0.818  33.008 233.024  1.00 20.00     0.181 C 
HETATM   35  C4  KAN  4699       0.146  33.744 233.908  1.00 20.00     0.180 C 
HETATM   36  C3  KAN  4699       0.069  35.209 233.536  1.00 20.00     0.183 C 
HETATM   37  C2  KAN  4699      -1.349  35.712 233.797  1.00 20.00     0.204 C 
BRANCH  34  38
HETATM   38  C6  KAN  4699      -0.871  31.496 233.378  1.00 20.00     0.264 C 
BRANCH  38  39
HETATM   39  N1  KAN  4699       0.041  30.783 232.412  1.00 20.00    -0.077 N 
ATOM     40  H13 KAN  4699      -0.011  29.767 232.488  1.00  0.00     0.274 HD
ATOM     41  H12 KAN  4699      -0.266  30.857 231.442  1.00  0.00     0.274 HD
ATOM     42  H11 KAN  4699       0.981  31.149 232.563  1.00  0.00     0.274 HD
ENDBRANCH  38  39
ENDBRANCH  34  38
BRANCH  35  43
HETATM   43  O8  KAN  4699       1.426  33.224 233.603  1.00 20.00    -0.390 OA
ATOM     44  H8  KAN  4699       2.050  33.929 233.477  1.00  0.00     0.210 HD
ENDBRANCH  35  43
BRANCH  36  45
HETATM   45  O7  KAN  4699       1.029  35.913 234.371  1.00 20.00    -0.390 OA
ATOM     46  H7  KAN  4699       0.799  35.834 235.289  1.00  0.00     0.210 HD
ENDBRANCH  36  45
BRANCH  37  47
HETATM   47  O6  KAN  4699      -1.420  37.135 233.511  1.00 20.00    -0.388 OA
ATOM     48  H6  KAN  4699      -0.786  37.583 234.059  1.00  0.00     0.210 HD
ENDBRANCH  37  47
ENDBRANCH  31  32
ENDBRANCH   4  31
BRANCH   5  49
HETATM   49  N2  KAN  4699      -3.810  33.863 230.212  1.00 20.00    -0.072 N 
ATOM     50  H23 KAN  4699      -3.735  32.936 229.793  1.00  0.00     0.274 HD
ATOM     51  H22 KAN  4699      -3.448  33.626 231.136  1.00  0.00     0.274 HD
ATOM     52  H21 KAN  4699      -4.770  34.205 230.240  1.00  0.00     0.274 HD
ENDBRANCH   5  49
TORSDOF 17
ENDMDL
MODEL 6
REMARK VINA RESULT:      -5.4      2.928      3.912
REMARK  17 active torsions:
REMARK  status: ('A' for Active; 'I' for Inactive)
REMARK    1  A    between atoms: C1_1  and  O9_42 
REMARK    2  A    between atoms: C2_2  and  O6_36 
REMARK    3  A    between atoms: C3_3  and  O7_38 
REMARK    4  A    between atoms: C4_4  and  O8_40 
REMARK    5  A    between atoms: C5_5  and  C6_6 
REMARK    6  A    between atoms: C6_6  and  N1_19 
REMARK    7  A    between atoms: C7_7  and  N3_27 
REMARK    8  A    between atoms: C8_8  and  O11_45 
REMARK    9  A    between atoms: C9_9  and  O10_43 
REMARK   10  A    between atoms: C10_10  and  O9_42 
REMARK   11  A    between atoms: C11_11  and  N2_23 
REMARK   12  A    between atoms: C13_13  and  O11_45 
REMARK   13  A    between atoms: C14_14  and  O13_47 
REMARK   14  A    between atoms: C15_15  and  N4_31 
REMARK   15  A    between atoms: C16_16  and  O14_49 
REMARK   16  A    between atoms: C17_17  and  C18_18 
REMARK   17  A    between atoms: C18_18  and  O15_51 
ROOT
HETATM    1  C7  KAN  4699      -3.278  36.458 227.416  1.00 20.00     0.217 C 
HETATM    2  C8  KAN  4699      -2.804  37.531 228.409  1.00 20.00     0.186 C 
HETATM    3  C9  KAN  4699      -1.870  36.865 229.446  1.00 20.00     0.180 C 
HETATM    4  C10 KAN  4699      -2.646  35.763 230.204  1.00 20.00     0.186 C 
HETATM    5  C11 KAN  4699      -3.119  34.690 229.174  1.00 20.00     0.217 C 
HETATM    6  C12 KAN  4699      -4.031  35.351 228.112  1.00 20.00     0.071 C 
ENDROOT
BRANCH   2   7
HETATM    7  O11 KAN  4699      -2.071  38.566 227.728  1.00 20.00    -0.349 OA
BRANCH   7   8
HETATM    8  C13 KAN  4699      -2.481  39.951 227.996  1.00 20.00     0.291 C 
HETATM    9  O12 KAN  4699      -1.403  40.651 228.602  1.00 20.00    -0.349 OA
HETATM   10  C17 KAN  4699      -0.159  40.765 227.894  1.00 20.00     0.179 C 
HETATM   11  C16 KAN  4699      -0.415  41.534 226.626  1.00 20.00     0.182 C 
HETATM   12  C15 KAN  4699      -1.495  40.736 225.837  1.00 20.00     0.248 C 
HETATM   13  C14 KAN  4699      -2.790  40.636 226.671  1.00 20.00     0.206 C 
BRANCH  10  14
HETATM   14  C18 KAN  4699       0.900  41.383 228.834  1.00 20.00     0.198 C 
BRANCH  14  15
HETATM   15  O15 KAN  4699       0.308  42.498 229.560  1.00 20.00    -0.398 OA
ATOM     16  H15 KAN  4699      -0.639  42.445 229.502  1.00  0.00     0.209 HD
ENDBRANCH  14  15
ENDBRANCH  10  14
BRANCH  11  17
HETATM   17  O14 KAN  4699       0.773  41.597 225.875  1.00 20.00    -0.391 OA
ATOM     18  H14 KAN  4699       1.460  41.999 226.394  1.00  0.00     0.210 HD
ENDBRANCH  11  17
BRANCH  12  19
HETATM   19  N4  KAN  4699      -1.716  41.283 224.493  1.00 20.00    -0.070 N 
ATOM     20  H43 KAN  4699      -1.203  42.155 224.366  1.00  0.00     0.274 HD
ATOM     21  H42 KAN  4699      -1.250  40.711 223.788  1.00  0.00     0.274 HD
ATOM     22  H41 KAN  4699      -2.703  41.406 224.267  1.00  0.00     0.274 HD
ENDBRANCH  12  19
BRANCH  13  23
HETATM   23  O13 KAN  4699      -3.751  39.896 225.973  1.00 20.00    -0.388 OA
ATOM     24  H13 KAN  4699      -4.606  40.295 226.087  1.00  0.00     0.210 HD
ENDBRANCH  13  23
ENDBRANCH   7   8
ENDBRANCH   2   7
BRANCH   1  25
HETATM   25  N3  KAN  4699      -4.128  37.134 226.347  1.00 20.00    -0.072 N 
ATOM     26  H33 KAN  4699      -3.559  37.718 225.735  1.00  0.00     0.274 HD
ATOM     27  H32 KAN  4699      -4.463  36.461 225.658  1.00  0.00     0.274 HD
ATOM     28  H31 KAN  4699      -4.898  37.663 226.756  1.00  0.00     0.274 HD
ENDBRANCH   1  25
BRANCH   3  29
HETATM   29  O10 KAN  4699      -1.443  37.921 230.398  1.00 20.00    -0.390 OA
ATOM     30  H10 KAN  4699      -1.352  38.748 229.940  1.00  0.00     0.210 HD
ENDBRANCH   3  29
BRANCH   4  31
HETATM   31  O9  KAN  4699      -1.720  34.998 231.001  1.00 20.00    -0.349 OA
BRANCH  31  32
HETATM   32  C1  KAN  4699      -0.354  34.814 230.583  1.00 20.00     0.292 C 
HETATM   33  O5  KAN  4699       0.438  35.596 231.427  1.00 20.00    -0.349 OA
HETATM   34  C5  KAN  4699       0.552  35.232 232.808  1.00 20.00     0.181 C 
HETATM   35  C4  KAN  4699       0.812  33.770 233.027  1.00 20.00     0.180 C 
HETATM   36  C3  KAN  4699      -0.196  33.004 232.200  1.00 20.00     0.183 C 
HETATM   37  C2  KAN  4699       0.012  33.344 230.725  1.00 20.00     0.204 C 
BRANCH  34  38
HETATM   38  C6  KAN  4699       1.589  36.112 233.560  1.00 20.00     0.264 C 
BRANCH  38  39
HETATM   39  N1  KAN  4699       0.836  36.869 234.624  1.00 20.00    -0.077 N 
ATOM     40  H13 KAN  4699       0.293  37.648 234.252  1.00  0.00     0.274 HD
ATOM     41  H12 KAN  4699       0.057  36.342 235.016  1.00  0.00     0.274 HD
ATOM     42  H11 KAN  4699       1.519  37.156 235.327  1.00  0.00     0.274 HD
ENDBRANCH  38  39
ENDBRANCH  34  38
BRANCH  35  43
HETATM   43  O8  KAN  4699       0.596  33.541 234.407  1.00 20.00    -0.390 OA
ATOM     44  H8  KAN  4699       0.921  32.684 234.656  1.00  0.00     0.210 HD
ENDBRANCH  35  43
BRANCH  36  45
HETATM   45  O7  KAN  4699       0.038  31.590 232.442  1.00 20.00    -0.390 OA
ATOM     46  H7  KAN  4699      -0.379  31.060 231.774  1.00  0.00     0.210 HD
ENDBRANCH  36  45
BRANCH  37  47
HETATM   47  O6  KAN  4699      -0.903  32.562 229.913  1.00 20.00    -0.388 OA
ATOM     48  H6  KAN  4699      -1.791  32.829 230.119  1.00  0.00     0.210 HD
ENDBRANCH  37  47
ENDBRANCH  31  32
ENDBRANCH   4  31
BRANCH   5  49
HETATM   49  N2  KAN  4699      -3.871  33.656 229.905  1.00 20.00    -0.072 N 
ATOM     50  H23 KAN  4699      -4.696  33.337 229.397  1.00  0.00     0.274 HD
ATOM     51  H22 KAN  4699      -3.379  32.763 229.942  1.00  0.00     0.274 HD
ATOM     52  H21 KAN  4699      -4.096  34.021 230.830  1.00  0.00     0.274 HD
ENDBRANCH   5  49
TORSDOF 17
ENDMDL
MODEL 7
REMARK VINA RESULT:      -5.3      4.343      7.076
REMARK  17 active torsions:
REMARK  status: ('A' for Active; 'I' for Inactive)
REMARK    1  A    between atoms: C1_1  and  O9_42 
REMARK    2  A    between atoms: C2_2  and  O6_36 
REMARK    3  A    between atoms: C3_3  and  O7_38 
REMARK    4  A    between atoms: C4_4  and  O8_40 
REMARK    5  A    between atoms: C5_5  and  C6_6 
REMARK    6  A    between atoms: C6_6  and  N1_19 
REMARK    7  A    between atoms: C7_7  and  N3_27 
REMARK    8  A    between atoms: C8_8  and  O11_45 
REMARK    9  A    between atoms: C9_9  and  O10_43 
REMARK   10  A    between atoms: C10_10  and  O9_42 
REMARK   11  A    between atoms: C11_11  and  N2_23 
REMARK   12  A    between atoms: C13_13  and  O11_45 
REMARK   13  A    between atoms: C14_14  and  O13_47 
REMARK   14  A    between atoms: C15_15  and  N4_31 
REMARK   15  A    between atoms: C16_16  and  O14_49 
REMARK   16  A    between atoms: C17_17  and  C18_18 
REMARK   17  A    between atoms: C18_18  and  O15_51 
ROOT
HETATM    1  C7  KAN  4699       1.400  31.512 232.472  1.00 20.00     0.217 C 
HETATM    2  C8  KAN  4699       0.502  32.751 232.336  1.00 20.00     0.186 C 
HETATM    3  C9  KAN  4699       1.011  33.839 233.309  1.00 20.00     0.180 C 
HETATM    4  C10 KAN  4699       0.942  33.304 234.759  1.00 20.00     0.186 C 
HETATM    5  C11 KAN  4699       1.858  32.046 234.869  1.00 20.00     0.217 C 
HETATM    6  C12 KAN  4699       1.376  30.960 233.876  1.00 20.00     0.071 C 
ENDROOT
BRANCH   2   7
HETATM    7  O11 KAN  4699       0.554  33.272 230.995  1.00 20.00    -0.349 OA
BRANCH   7   8
HETATM    8  C13 KAN  4699      -0.703  33.266 230.234  1.00 20.00     0.291 C 
HETATM    9  O12 KAN  4699      -1.367  34.510 230.415  1.00 20.00    -0.349 OA
HETATM   10  C17 KAN  4699      -0.703  35.720 230.022  1.00 20.00     0.179 C 
HETATM   11  C16 KAN  4699      -0.465  35.657 228.537  1.00 20.00     0.182 C 
HETATM   12  C15 KAN  4699       0.391  34.381 228.281  1.00 20.00     0.248 C 
HETATM   13  C14 KAN  4699      -0.378  33.128 228.753  1.00 20.00     0.206 C 
BRANCH  10  14
HETATM   14  C18 KAN  4699      -1.535  36.930 230.502  1.00 20.00     0.198 C 
BRANCH  14  15
HETATM   15  O15 KAN  4699      -1.586  36.932 231.958  1.00 20.00    -0.398 OA
ATOM     16  H15 KAN  4699      -2.239  36.307 232.251  1.00  0.00     0.209 HD
ENDBRANCH  14  15
ENDBRANCH  10  14
BRANCH  11  17
HETATM   17  O14 KAN  4699       0.252  36.798 228.133  1.00 20.00    -0.391 OA
ATOM     18  H14 KAN  4699      -0.039  37.553 228.633  1.00  0.00     0.210 HD
ENDBRANCH  11  17
BRANCH  12  19
HETATM   19  N4  KAN  4699       0.846  34.288 226.889  1.00 20.00    -0.070 N 
ATOM     20  H43 KAN  4699       0.470  35.055 226.332  1.00  0.00     0.274 HD
ATOM     21  H42 KAN  4699       1.841  34.502 226.818  1.00  0.00     0.274 HD
ATOM     22  H41 KAN  4699       0.636  33.388 226.458  1.00  0.00     0.274 HD
ENDBRANCH  12  19
BRANCH  13  23
HETATM   23  O13 KAN  4699       0.401  31.984 228.547  1.00 20.00    -0.388 OA
ATOM     24  H13 KAN  4699       0.877  32.065 227.730  1.00  0.00     0.210 HD
ENDBRANCH  13  23
ENDBRANCH   7   8
ENDBRANCH   2   7
BRANCH   1  25
HETATM   25  N3  KAN  4699       0.947  30.475 231.450  1.00 20.00    -0.072 N 
ATOM     26  H33 KAN  4699       1.384  30.633 230.542  1.00  0.00     0.274 HD
ATOM     27  H32 KAN  4699       1.337  29.555 231.656  1.00  0.00     0.274 HD
ATOM     28  H31 KAN  4699      -0.069  30.439 231.373  1.00  0.00     0.274 HD
ENDBRANCH   1  25
BRANCH   3  29
HETATM   29  O10 KAN  4699       0.115  35.014 233.166  1.00 20.00    -0.390 OA
ATOM     30  H10 KAN  4699      -0.483  35.052 233.903  1.00  0.00     0.210 HD
ENDBRANCH   3  29
BRANCH   4  31
HETATM   31  O9  KAN  4699       1.624  34.225 235.633  1.00 20.00    -0.349 OA
BRANCH  31  32
HETATM   32  C1  KAN  4699       1.017  34.676 236.859  1.00 20.00     0.292 C 
HETATM   33  O5  KAN  4699       2.012  34.656 237.838  1.00 20.00    -0.349 OA
HETATM   34  C5  KAN  4699       3.098  35.586 237.744  1.00 20.00     0.181 C 
HETATM   35  C4  KAN  4699       2.664  36.992 237.447  1.00 20.00     0.180 C 
HETATM   36  C3  KAN  4699       1.714  36.931 236.271  1.00 20.00     0.183 C 
HETATM   37  C2  KAN  4699       0.498  36.093 236.660  1.00 20.00     0.204 C 
BRANCH  34  38
HETATM   38  C6  KAN  4699       4.024  35.529 238.991  1.00 20.00     0.264 C 
BRANCH  38  39
HETATM   39  N1  KAN  4699       3.693  36.729 239.842  1.00 20.00    -0.077 N 
ATOM     40  H13 KAN  4699       2.878  37.243 239.507  1.00  0.00     0.274 HD
ATOM     41  H12 KAN  4699       3.322  36.479 240.759  1.00  0.00     0.274 HD
ATOM     42  H11 KAN  4699       4.535  37.302 239.893  1.00  0.00     0.274 HD
ENDBRANCH  38  39
ENDBRANCH  34  38
BRANCH  35  43
HETATM   43  O8  KAN  4699       3.842  37.694 237.095  1.00 20.00    -0.390 OA
ATOM     44  H8  KAN  4699       3.636  38.592 236.863  1.00  0.00     0.210 HD
ENDBRANCH  35  43
BRANCH  36  45
HETATM   45  O7  KAN  4699       1.324  38.297 235.965  1.00 20.00    -0.390 OA
ATOM     46  H7  KAN  4699       0.499  38.315 235.495  1.00  0.00     0.210 HD
ENDBRANCH  36  45
BRANCH  37  47
HETATM   47  O6  KAN  4699      -0.456  36.084 235.565  1.00 20.00    -0.388 OA
ATOM     48  H6  KAN  4699      -1.142  36.713 235.758  1.00  0.00     0.210 HD
ENDBRANCH  37  47
ENDBRANCH  31  32
ENDBRANCH   4  31
BRANCH   5  49
HETATM   49  N2  KAN  4699       1.771  31.535 236.248  1.00 20.00    -0.072 N 
ATOM     50  H23 KAN  4699       0.879  31.751 236.692  1.00  0.00     0.274 HD
ATOM     51  H22 KAN  4699       1.702  30.518 236.288  1.00  0.00     0.274 HD
ATOM     52  H21 KAN  4699       2.569  31.898 236.771  1.00  0.00     0.274 HD
ENDBRANCH   5  49
TORSDOF 17
ENDMDL
MODEL 8
REMARK VINA RESULT:      -5.3      5.938      8.500
REMARK  17 active torsions:
REMARK  status: ('A' for Active; 'I' for Inactive)
REMARK    1  A    between atoms: C1_1  and  O9_42 
REMARK    2  A    between atoms: C2_2  and  O6_36 
REMARK    3  A    between atoms: C3_3  and  O7_38 
REMARK    4  A    between atoms: C4_4  and  O8_40 
REMARK    5  A    between atoms: C5_5  and  C6_6 
REMARK    6  A    between atoms: C6_6  and  N1_19 
REMARK    7  A    between atoms: C7_7  and  N3_27 
REMARK    8  A    between atoms: C8_8  and  O11_45 
REMARK    9  A    between atoms: C9_9  and  O10_43 
REMARK   10  A    between atoms: C10_10  and  O9_42 
REMARK   11  A    between atoms: C11_11  and  N2_23 
REMARK   12  A    between atoms: C13_13  and  O11_45 
REMARK   13  A    between atoms: C14_14  and  O13_47 
REMARK   14  A    between atoms: C15_15  and  N4_31 
REMARK   15  A    between atoms: C16_16  and  O14_49 
REMARK   16  A    between atoms: C17_17  and  C18_18 
REMARK   17  A    between atoms: C18_18  and  O15_51 
ROOT
HETATM    1  C7  KAN  4699       1.142  31.692 234.244  1.00 20.00     0.217 C 
HETATM    2  C8  KAN  4699       0.209  32.737 234.877  1.00 20.00     0.186 C 
HETATM    3  C9  KAN  4699       0.985  33.483 235.987  1.00 20.00     0.180 C 
HETATM    4  C10 KAN  4699       1.439  32.471 237.065  1.00 20.00     0.186 C 
HETATM    5  C11 KAN  4699       2.380  31.421 236.397  1.00 20.00     0.217 C 
HETATM    6  C12 KAN  4699       1.623  30.689 235.262  1.00 20.00     0.071 C 
ENDROOT
BRANCH   2   7
HETATM    7  O11 KAN  4699      -0.222  33.696 233.893  1.00 20.00    -0.349 OA
BRANCH   7   8
HETATM    8  C13 KAN  4699       0.820  34.532 233.283  1.00 20.00     0.291 C 
HETATM    9  O12 KAN  4699       1.133  34.025 231.992  1.00 20.00    -0.349 OA
HETATM   10  C17 KAN  4699       0.096  33.948 231.003  1.00 20.00     0.179 C 
HETATM   11  C16 KAN  4699      -0.389  35.346 230.729  1.00 20.00     0.182 C 
HETATM   12  C15 KAN  4699      -0.887  35.916 232.090  1.00 20.00     0.248 C 
HETATM   13  C14 KAN  4699       0.276  35.942 233.106  1.00 20.00     0.206 C 
BRANCH  10  14
HETATM   14  C18 KAN  4699       0.632  33.186 229.771  1.00 20.00     0.198 C 
BRANCH  14  15
HETATM   15  O15 KAN  4699       1.215  34.137 228.833  1.00 20.00    -0.398 OA
ATOM     16  H15 KAN  4699       1.596  34.861 229.315  1.00  0.00     0.209 HD
ENDBRANCH  14  15
ENDBRANCH  10  14
BRANCH  11  17
HETATM   17  O14 KAN  4699      -1.459  35.296 229.816  1.00 20.00    -0.391 OA
ATOM     18  H14 KAN  4699      -1.169  34.891 229.006  1.00  0.00     0.210 HD
ENDBRANCH  11  17
BRANCH  12  19
HETATM   19  N4  KAN  4699      -1.551  37.216 231.939  1.00 20.00    -0.070 N 
ATOM     20  H43 KAN  4699      -2.381  37.270 232.528  1.00  0.00     0.274 HD
ATOM     21  H42 KAN  4699      -0.995  37.958 232.363  1.00  0.00     0.274 HD
ATOM     22  H41 KAN  4699      -1.777  37.440 230.970  1.00  0.00     0.274 HD
ENDBRANCH  12  19
BRANCH  13  23
HETATM   23  O13 KAN  4699      -0.178  36.429 234.338  1.00 20.00    -0.388 OA
ATOM     24  H13 KAN  4699       0.561  36.728 234.854  1.00  0.00     0.210 HD
ENDBRANCH  13  23
ENDBRANCH   7   8
ENDBRANCH   2   7
BRANCH   1  25
HETATM   25  N3  KAN  4699       0.401  31.020 233.094  1.00 20.00    -0.072 N 
ATOM     26  H33 KAN  4699       0.865  31.192 232.203  1.00  0.00     0.274 HD
ATOM     27  H32 KAN  4699       0.500  30.005 233.131  1.00  0.00     0.274 HD
ATOM     28  H31 KAN  4699      -0.580  31.296 233.064  1.00  0.00     0.274 HD
ENDBRANCH   1  25
BRANCH   3  29
HETATM   29  O10 KAN  4699       0.054  34.471 236.588  1.00 20.00    -0.390 OA
ATOM     30  H10 KAN  4699       0.540  35.233 236.879  1.00  0.00     0.210 HD
ENDBRANCH   3  29
BRANCH   4  31
HETATM   31  O9  KAN  4699       2.348  33.126 237.972  1.00 20.00    -0.349 OA
BRANCH  31  32
HETATM   32  C1  KAN  4699       3.677  33.496 237.556  1.00 20.00     0.292 C 
HETATM   33  O5  KAN  4699       3.613  34.822 237.123  1.00 20.00    -0.349 OA
HETATM   34  C5  KAN  4699       3.358  35.855 238.082  1.00 20.00     0.181 C 
HETATM   35  C4  KAN  4699       4.183  35.737 239.330  1.00 20.00     0.180 C 
HETATM   36  C3  KAN  4699       4.061  34.309 239.816  1.00 20.00     0.183 C 
HETATM   37  C2  KAN  4699       4.618  33.373 238.746  1.00 20.00     0.204 C 
BRANCH  34  38
HETATM   38  C6  KAN  4699       3.475  37.273 237.457  1.00 20.00     0.264 C 
BRANCH  38  39
HETATM   39  N1  KAN  4699       4.919  37.690 237.575  1.00 20.00    -0.077 N 
ATOM     40  H13 KAN  4699       5.138  38.530 237.039  1.00  0.00     0.274 HD
ATOM     41  H12 KAN  4699       5.156  38.058 238.496  1.00  0.00     0.274 HD
ATOM     42  H11 KAN  4699       5.486  36.885 237.308  1.00  0.00     0.274 HD
ENDBRANCH  38  39
ENDBRANCH  34  38
BRANCH  35  43
HETATM   43  O8  KAN  4699       3.602  36.628 240.264  1.00 20.00    -0.390 OA
ATOM     44  H8  KAN  4699       3.897  37.517 240.102  1.00  0.00     0.210 HD
ENDBRANCH  35  43
BRANCH  36  45
HETATM   45  O7  KAN  4699       4.834  34.208 241.043  1.00 20.00    -0.390 OA
ATOM     46  H7  KAN  4699       4.575  33.443 241.543  1.00  0.00     0.210 HD
ENDBRANCH  36  45
BRANCH  37  47
HETATM   47  O6  KAN  4699       4.572  32.003 239.228  1.00 20.00    -0.388 OA
ATOM     48  H6  KAN  4699       5.437  31.765 239.540  1.00  0.00     0.210 HD
ENDBRANCH  37  47
ENDBRANCH  31  32
ENDBRANCH   4  31
BRANCH   5  49
HETATM   49  N2  KAN  4699       2.791  30.454 237.429  1.00 20.00    -0.072 N 
ATOM     50  H23 KAN  4699       3.421  30.860 238.121  1.00  0.00     0.274 HD
ATOM     51  H22 KAN  4699       2.031  30.207 238.063  1.00  0.00     0.274 HD
ATOM     52  H21 KAN  4699       3.193  29.642 236.960  1.00  0.00     0.274 HD
ENDBRANCH   5  49
TORSDOF 17
ENDMDL
MODEL 9
REMARK VINA RESULT:      -5.2      7.212     10.553
REMARK  17 active torsions:
REMARK  status: ('A' for Active; 'I' for Inactive)
REMARK    1  A    between atoms: C1_1  and  O9_42 
REMARK    2  A    between atoms: C2_2  and  O6_36 
REMARK    3  A    between atoms: C3_3  and  O7_38 
REMARK    4  A    between atoms: C4_4  and  O8_40 
REMARK    5  A    between atoms: C5_5  and  C6_6 
REMARK    6  A    between atoms: C6_6  and  N1_19 
REMARK    7  A    between atoms: C7_7  and  N3_27 
REMARK    8  A    between atoms: C8_8  and  O11_45 
REMARK    9  A    between atoms: C9_9  and  O10_43 
REMARK   10  A    between atoms: C10_10  and  O9_42 
REMARK   11  A    between atoms: C11_11  and  N2_23 
REMARK   12  A    between atoms: C13_13  and  O11_45 
REMARK   13  A    between atoms: C14_14  and  O13_47 
REMARK   14  A    between atoms: C15_15  and  N4_31 
REMARK   15  A    between atoms: C16_16  and  O14_49 
REMARK   16  A    between atoms: C17_17  and  C18_18 
REMARK   17  A    between atoms: C18_18  and  O15_51 
ROOT
HETATM    1  C7  KAN  4699       1.493  37.079 236.754  1.00 20.00     0.217 C 
HETATM    2  C8  KAN  4699       1.638  35.690 236.112  1.00 20.00     0.186 C 
HETATM    3  C9  KAN  4699       2.448  34.786 237.070  1.00 20.00     0.180 C 
HETATM    4  C10 KAN  4699       3.849  35.403 237.296  1.00 20.00     0.186 C 
HETATM    5  C11 KAN  4699       3.674  36.811 237.943  1.00 20.00     0.217 C 
HETATM    6  C12 KAN  4699       2.837  37.716 237.007  1.00 20.00     0.071 C 
ENDROOT
BRANCH   2   7
HETATM    7  O11 KAN  4699       0.346  35.092 235.898  1.00 20.00    -0.349 OA
BRANCH   7   8
HETATM    8  C13 KAN  4699       0.116  34.469 234.588  1.00 20.00     0.291 C 
HETATM    9  O12 KAN  4699       0.212  33.056 234.716  1.00 20.00    -0.349 OA
HETATM   10  C17 KAN  4699      -0.679  32.374 235.611  1.00 20.00     0.179 C 
HETATM   11  C16 KAN  4699      -2.085  32.591 235.121  1.00 20.00     0.182 C 
HETATM   12  C15 KAN  4699      -2.309  34.133 235.094  1.00 20.00     0.248 C 
HETATM   13  C14 KAN  4699      -1.300  34.795 234.132  1.00 20.00     0.206 C 
BRANCH  10  14
HETATM   14  C18 KAN  4699      -0.245  30.896 235.724  1.00 20.00     0.198 C 
BRANCH  14  15
HETATM   15  O15 KAN  4699       1.103  30.830 236.272  1.00 20.00    -0.398 OA
ATOM     16  H15 KAN  4699       1.410  31.710 236.461  1.00  0.00     0.209 HD
ENDBRANCH  14  15
ENDBRANCH  10  14
BRANCH  11  17
HETATM   17  O14 KAN  4699      -2.988  31.996 236.021  1.00 20.00    -0.391 OA
ATOM     18  H14 KAN  4699      -3.070  32.538 236.797  1.00  0.00     0.210 HD
ENDBRANCH  11  17
BRANCH  12  19
HETATM   19  N4  KAN  4699      -3.703  34.485 234.799  1.00 20.00    -0.070 N 
ATOM     20  H43 KAN  4699      -3.762  35.070 233.965  1.00  0.00     0.274 HD
ATOM     21  H42 KAN  4699      -4.222  33.671 234.469  1.00  0.00     0.274 HD
ATOM     22  H41 KAN  4699      -4.180  34.926 235.585  1.00  0.00     0.274 HD
ENDBRANCH  12  19
BRANCH  13  23
HETATM   23  O13 KAN  4699      -1.484  36.182 234.128  1.00 20.00    -0.388 OA
ATOM     24  H13 KAN  4699      -2.293  36.398 234.575  1.00  0.00     0.210 HD
ENDBRANCH  13  23
ENDBRANCH   7   8
ENDBRANCH   2   7
BRANCH   1  25
HETATM   25  N3  KAN  4699       0.622  37.939 235.846  1.00 20.00    -0.072 N 
ATOM     26  H33 KAN  4699      -0.149  38.361 236.363  1.00  0.00     0.274 HD
ATOM     27  H32 KAN  4699       1.107  38.790 235.563  1.00  0.00     0.274 HD
ATOM     28  H31 KAN  4699       0.286  37.416 235.038  1.00  0.00     0.274 HD
ENDBRANCH   1  25
BRANCH   3  29
HETATM   29  O10 KAN  4699       2.585  33.460 236.416  1.00 20.00    -0.390 OA
ATOM     30  H10 KAN  4699       2.558  32.775 237.073  1.00  0.00     0.210 HD
ENDBRANCH   3  29
BRANCH   4  31
HETATM   31  O9  KAN  4699       4.513  34.687 238.356  1.00 20.00    -0.349 OA
BRANCH  31  32
HETATM   32  C1  KAN  4699       4.047  34.772 239.717  1.00 20.00     0.292 C 
HETATM   33  O5  KAN  4699       3.115  33.748 239.894  1.00 20.00    -0.349 OA
HETATM   34  C5  KAN  4699       3.565  32.388 239.871  1.00 20.00     0.181 C 
HETATM   35  C4  KAN  4699       4.793  32.145 240.699  1.00 20.00     0.180 C 
HETATM   36  C3  KAN  4699       5.805  33.205 240.323  1.00 20.00     0.183 C 
HETATM   37  C2  KAN  4699       5.230  34.580 240.656  1.00 20.00     0.204 C 
BRANCH  34  38
HETATM   38  C6  KAN  4699       2.429  31.392 240.237  1.00 20.00     0.264 C 
BRANCH  38  39
HETATM   39  N1  KAN  4699       2.344  30.387 239.117  1.00 20.00    -0.077 N 
ATOM     40  H13 KAN  4699       3.005  29.616 239.220  1.00  0.00     0.274 HD
ATOM     41  H12 KAN  4699       1.490  29.831 239.141  1.00  0.00     0.274 HD
ATOM     42  H11 KAN  4699       2.462  30.901 238.244  1.00  0.00     0.274 HD
ENDBRANCH  38  39
ENDBRANCH  34  38
BRANCH  35  43
HETATM   43  O8  KAN  4699       5.261  30.862 240.330  1.00 20.00    -0.390 OA
ATOM     44  H8  KAN  4699       5.155  30.725 239.395  1.00  0.00     0.210 HD
ENDBRANCH  35  43
BRANCH  36  45
HETATM   45  O7  KAN  4699       7.005  32.945 241.102  1.00 20.00    -0.390 OA
ATOM     46  H7  KAN  4699       7.330  33.745 241.498  1.00  0.00     0.210 HD
ENDBRANCH  36  45
BRANCH  37  47
HETATM   47  O6  KAN  4699       6.219  35.603 240.365  1.00 20.00    -0.388 OA
ATOM     48  H6  KAN  4699       6.091  36.325 240.969  1.00  0.00     0.210 HD
ENDBRANCH  37  47
ENDBRANCH  31  32
ENDBRANCH   4  31
BRANCH   5  49
HETATM   49  N2  KAN  4699       5.012  37.395 238.137  1.00 20.00    -0.072 N 
ATOM     50  H23 KAN  4699       5.735  36.688 238.273  1.00  0.00     0.274 HD
ATOM     51  H22 KAN  4699       5.387  37.813 237.286  1.00  0.00     0.274 HD
ATOM     52  H21 KAN  4699       4.960  38.058 238.911  1.00  0.00     0.274 HD
ENDBRANCH   5  49
TORSDOF 17
ENDMDL
