MODEL 1
REMARK VINA RESULT:      -6.8      0.000      0.000
REMARK  6 active torsions:
REMARK  status: ('A' for Active; 'I' for Inactive)
REMARK    1  A    between atoms: N1_1  and  S1_4 
REMARK    2  A    between atoms: C1_7  and  S1_4 
REMARK    3  A    between atoms: C4_11  and  N2_12 
REMARK    4  A    between atoms: C5_14  and  N2_12 
REMARK    5  A    between atoms: C5_14  and  C6_15 
REMARK    6  A    between atoms: C10_20  and  C12_22 
ROOT
HETATM    1  C1  FUN  3723      -3.543  39.508 225.896  1.00 20.00     0.102 A 
HETATM    2  C2  FUN  3723      -3.014  40.185 224.792  1.00 20.00     0.059 A 
HETATM    3 CL1  FUN  3723      -3.805  40.083 223.237  1.00 20.00    -0.083 Cl
HETATM    4  C3  FUN  3723      -1.870  40.992 224.845  1.00 20.00     0.055 A 
HETATM    5  C4  FUN  3723      -1.271  41.192 226.083  1.00 20.00     0.047 A 
HETATM    6  C10 FUN  3723      -1.775  40.489 227.188  1.00 20.00     0.068 A 
HETATM    7  C11 FUN  3723      -2.890  39.656 227.122  1.00 20.00     0.047 A 
ENDROOT
BRANCH   5   8
HETATM    8  N2  FUN  3723      -0.106  41.970 226.229  1.00 20.00    -0.383 N 
ATOM      9  H2  FUN  3723      -0.173  42.934 226.559  1.00  0.00     0.160 HD
BRANCH   8  10
HETATM   10  C5  FUN  3723       1.204  41.391 225.906  1.00 20.00     0.185 C 
BRANCH  10  11
HETATM   11  C6  FUN  3723       2.143  41.641 227.053  1.00 20.00     0.070 A 
HETATM   12  C7  FUN  3723       3.022  40.764 227.534  1.00 20.00     0.036 A 
HETATM   13  C8  FUN  3723       3.656  41.527 228.613  1.00 20.00     0.027 A 
HETATM   14  C9  FUN  3723       3.048  42.714 228.547  1.00 20.00     0.142 A 
HETATM   15  O3  FUN  3723       2.058  42.837 227.653  1.00 20.00    -0.325 OA
ENDBRANCH  10  11
ENDBRANCH   8  10
ENDBRANCH   5   8
BRANCH   6  16
HETATM   16  C12 FUN  3723      -1.163  40.628 228.566  1.00 20.00     0.211 C 
HETATM   17  O4  FUN  3723      -0.836  41.717 228.971  1.00 20.00    -0.644 OA
HETATM   18  O5  FUN  3723      -1.012  39.537 229.291  1.00 20.00    -0.644 OA
ENDBRANCH   6  16
BRANCH   1  19
HETATM   19  S1  FUN  3723      -4.969  38.464 225.804  1.00 20.00     0.258 S 
HETATM   20  O1  FUN  3723      -5.157  37.907 227.162  1.00 20.00    -0.201 OA
HETATM   21  O2  FUN  3723      -4.800  37.498 224.743  1.00 20.00    -0.201 OA
BRANCH  19  22
HETATM   22  N1  FUN  3723      -6.113  39.362 225.550  1.00 20.00    -0.324 N 
ATOM     23  H12 FUN  3723      -6.546  39.994 226.224  1.00  0.00     0.169 HD
ATOM     24  H11 FUN  3723      -6.370  39.219 224.573  1.00  0.00     0.169 HD
ENDBRANCH  19  22
ENDBRANCH   1  19
TORSDOF 6
ENDMDL
MODEL 2
REMARK VINA RESULT:      -5.9     10.875     12.183
REMARK  6 active torsions:
REMARK  status: ('A' for Active; 'I' for Inactive)
REMARK    1  A    between atoms: N1_1  and  S1_4 
REMARK    2  A    between atoms: C1_7  and  S1_4 
REMARK    3  A    between atoms: C4_11  and  N2_12 
REMARK    4  A    between atoms: C5_14  and  N2_12 
REMARK    5  A    between atoms: C5_14  and  C6_15 
REMARK    6  A    between atoms: C10_20  and  C12_22 
ROOT
HETATM    1  C1  FUN  3723      -0.337  35.787 236.297  1.00 20.00     0.102 A 
HETATM    2  C2  FUN  3723       0.060  37.108 236.533  1.00 20.00     0.059 A 
HETATM    3 CL1  FUN  3723      -1.140  38.363 236.734  1.00 20.00    -0.083 Cl
HETATM    4  C3  FUN  3723       1.396  37.514 236.651  1.00 20.00     0.055 A 
HETATM    5  C4  FUN  3723       2.380  36.534 236.609  1.00 20.00     0.047 A 
HETATM    6  C10 FUN  3723       1.992  35.212 236.338  1.00 20.00     0.068 A 
HETATM    7  C11 FUN  3723       0.665  34.821 236.182  1.00 20.00     0.047 A 
ENDROOT
BRANCH   5   8
HETATM    8  N2  FUN  3723       3.749  36.850 236.700  1.00 20.00    -0.383 N 
ATOM      9  H2  FUN  3723       4.413  36.440 236.043  1.00  0.00     0.160 HD
BRANCH   8  10
HETATM   10  C5  FUN  3723       4.219  37.772 237.742  1.00 20.00     0.185 C 
BRANCH  10  11
HETATM   11  C6  FUN  3723       4.591  36.978 238.964  1.00 20.00     0.070 A 
HETATM   12  C7  FUN  3723       3.782  36.720 239.990  1.00 20.00     0.036 A 
HETATM   13  C8  FUN  3723       4.646  35.923 240.866  1.00 20.00     0.027 A 
HETATM   14  C9  FUN  3723       5.789  35.844 240.179  1.00 20.00     0.142 A 
HETATM   15  O3  FUN  3723       5.850  36.525 239.027  1.00 20.00    -0.325 OA
ENDBRANCH  10  11
ENDBRANCH   8  10
ENDBRANCH   5   8
BRANCH   6  16
HETATM   16  C12 FUN  3723       3.004  34.090 236.247  1.00 20.00     0.211 C 
HETATM   17  O4  FUN  3723       3.889  34.009 237.065  1.00 20.00    -0.644 OA
HETATM   18  O5  FUN  3723       2.878  33.219 235.264  1.00 20.00    -0.644 OA
ENDBRANCH   6  16
BRANCH   1  19
HETATM   19  S1  FUN  3723      -2.027  35.298 236.114  1.00 20.00     0.258 S 
HETATM   20  O1  FUN  3723      -2.445  35.762 234.773  1.00 20.00    -0.201 OA
HETATM   21  O2  FUN  3723      -2.804  35.799 237.225  1.00 20.00    -0.201 OA
BRANCH  19  22
HETATM   22  N1  FUN  3723      -2.020  33.823 236.072  1.00 20.00    -0.324 N 
ATOM     23  H12 FUN  3723      -1.366  33.237 235.551  1.00  0.00     0.169 HD
ATOM     24  H11 FUN  3723      -2.794  33.521 236.663  1.00  0.00     0.169 HD
ENDBRANCH  19  22
ENDBRANCH   1  19
TORSDOF 6
ENDMDL
MODEL 3
REMARK VINA RESULT:      -5.9      5.019      6.611
REMARK  6 active torsions:
REMARK  status: ('A' for Active; 'I' for Inactive)
REMARK    1  A    between atoms: N1_1  and  S1_4 
REMARK    2  A    between atoms: C1_7  and  S1_4 
REMARK    3  A    between atoms: C4_11  and  N2_12 
REMARK    4  A    between atoms: C5_14  and  N2_12 
REMARK    5  A    between atoms: C5_14  and  C6_15 
REMARK    6  A    between atoms: C10_20  and  C12_22 
ROOT
HETATM    1  C1  FUN  3723       0.517  39.886 228.016  1.00 20.00     0.102 A 
HETATM    2  C2  FUN  3723       1.664  39.377 227.397  1.00 20.00     0.059 A 
HETATM    3 CL1  FUN  3723       2.932  40.459 226.874  1.00 20.00    -0.083 Cl
HETATM    4  C3  FUN  3723       1.896  38.012 227.182  1.00 20.00     0.055 A 
HETATM    5  C4  FUN  3723       0.966  37.107 227.681  1.00 20.00     0.047 A 
HETATM    6  C10 FUN  3723      -0.203  37.612 228.271  1.00 20.00     0.068 A 
HETATM    7  C11 FUN  3723      -0.447  38.972 228.447  1.00 20.00     0.047 A 
ENDROOT
BRANCH   5   8
HETATM    8  N2  FUN  3723       1.105  35.719 227.494  1.00 20.00    -0.383 N 
ATOM      9  H2  FUN  3723       0.525  35.234 226.809  1.00  0.00     0.160 HD
BRANCH   8  10
HETATM   10  C5  FUN  3723       2.088  34.970 228.288  1.00 20.00     0.185 C 
BRANCH  10  11
HETATM   11  C6  FUN  3723       1.407  34.412 229.507  1.00 20.00     0.070 A 
HETATM   12  C7  FUN  3723       1.449  34.947 230.725  1.00 20.00     0.036 A 
HETATM   13  C8  FUN  3723       0.624  34.013 231.497  1.00 20.00     0.027 A 
HETATM   14  C9  FUN  3723       0.235  33.121 230.583  1.00 20.00     0.142 A 
HETATM   15  O3  FUN  3723       0.733  33.265 229.348  1.00 20.00    -0.325 OA
ENDBRANCH  10  11
ENDBRANCH   8  10
ENDBRANCH   5   8
BRANCH   6  16
HETATM   16  C12 FUN  3723      -1.279  36.695 228.814  1.00 20.00     0.211 C 
HETATM   17  O4  FUN  3723      -1.769  35.854 228.099  1.00 20.00    -0.644 OA
HETATM   18  O5  FUN  3723      -1.644  36.843 230.073  1.00 20.00    -0.644 OA
ENDBRANCH   6  16
BRANCH   1  19
HETATM   19  S1  FUN  3723       0.224  41.615 228.248  1.00 20.00     0.258 S 
HETATM   20  O1  FUN  3723      -1.050  41.719 228.994  1.00 20.00    -0.201 OA
HETATM   21  O2  FUN  3723       0.265  42.294 226.973  1.00 20.00    -0.201 OA
BRANCH  19  22
HETATM   22  N1  FUN  3723       1.289  42.089 229.155  1.00 20.00    -0.324 N 
ATOM     23  H12 FUN  3723       1.307  41.985 230.170  1.00  0.00     0.169 HD
ATOM     24  H11 FUN  3723       1.988  42.531 228.559  1.00  0.00     0.169 HD
ENDBRANCH  19  22
ENDBRANCH   1  19
TORSDOF 6
ENDMDL
MODEL 4
REMARK VINA RESULT:      -5.8      4.724      6.512
REMARK  6 active torsions:
REMARK  status: ('A' for Active; 'I' for Inactive)
REMARK    1  A    between atoms: N1_1  and  S1_4 
REMARK    2  A    between atoms: C1_7  and  S1_4 
REMARK    3  A    between atoms: C4_11  and  N2_12 
REMARK    4  A    between atoms: C5_14  and  N2_12 
REMARK    5  A    between atoms: C5_14  and  C6_15 
REMARK    6  A    between atoms: C10_20  and  C12_22 
ROOT
HETATM    1  C1  FUN  3723       0.486  40.138 227.462  1.00 20.00     0.102 A 
HETATM    2  C2  FUN  3723      -0.597  39.607 228.172  1.00 20.00     0.059 A 
HETATM    3 CL1  FUN  3723      -1.933  40.634 228.633  1.00 20.00    -0.083 Cl
HETATM    4  C3  FUN  3723      -0.711  38.257 228.530  1.00 20.00     0.055 A 
HETATM    5  C4  FUN  3723       0.274  37.381 228.088  1.00 20.00     0.047 A 
HETATM    6  C10 FUN  3723       1.380  37.912 227.407  1.00 20.00     0.068 A 
HETATM    7  C11 FUN  3723       1.507  39.261 227.087  1.00 20.00     0.047 A 
ENDROOT
BRANCH   5   8
HETATM    8  N2  FUN  3723       0.253  36.012 228.417  1.00 20.00    -0.383 N 
ATOM      9  H2  FUN  3723       0.928  35.374 227.994  1.00  0.00     0.160 HD
BRANCH   8  10
HETATM   10  C5  FUN  3723      -0.742  35.505 229.371  1.00 20.00     0.185 C 
BRANCH  10  11
HETATM   11  C6  FUN  3723      -0.103  35.391 230.728  1.00 20.00     0.070 A 
HETATM   12  C7  FUN  3723       1.090  34.853 230.974  1.00 20.00     0.036 A 
HETATM   13  C8  FUN  3723       1.204  35.014 232.427  1.00 20.00     0.027 A 
HETATM   14  C9  FUN  3723       0.069  35.636 232.755  1.00 20.00     0.142 A 
HETATM   15  O3  FUN  3723      -0.815  35.842 231.769  1.00 20.00    -0.325 OA
ENDBRANCH  10  11
ENDBRANCH   8  10
ENDBRANCH   5   8
BRANCH   6  16
HETATM   16  C12 FUN  3723       2.510  37.031 226.917  1.00 20.00     0.211 C 
HETATM   17  O4  FUN  3723       2.265  35.950 226.437  1.00 20.00    -0.644 OA
HETATM   18  O5  FUN  3723       3.743  37.485 227.027  1.00 20.00    -0.644 OA
ENDBRANCH   6  16
BRANCH   1  19
HETATM   19  S1  FUN  3723       0.630  41.851 227.048  1.00 20.00     0.258 S 
HETATM   20  O1  FUN  3723       0.964  42.550 228.309  1.00 20.00    -0.201 OA
HETATM   21  O2  FUN  3723      -0.571  42.296 226.380  1.00 20.00    -0.201 OA
BRANCH  19  22
HETATM   22  N1  FUN  3723       1.815  41.959 226.175  1.00 20.00    -0.324 N 
ATOM     23  H12 FUN  3723       1.984  41.431 225.319  1.00  0.00     0.169 HD
ATOM     24  H11 FUN  3723       2.416  42.663 226.603  1.00  0.00     0.169 HD
ENDBRANCH  19  22
ENDBRANCH   1  19
TORSDOF 6
ENDMDL
MODEL 5
REMARK VINA RESULT:      -5.8      9.979     11.902
REMARK  6 active torsions:
REMARK  status: ('A' for Active; 'I' for Inactive)
REMARK    1  A    between atoms: N1_1  and  S1_4 
REMARK    2  A    between atoms: C1_7  and  S1_4 
REMARK    3  A    between atoms: C4_11  and  N2_12 
REMARK    4  A    between atoms: C5_14  and  N2_12 
REMARK    5  A    between atoms: C5_14  and  C6_15 
REMARK    6  A    between atoms: C10_20  and  C12_22 
ROOT
HETATM    1  C1  FUN  3723       2.600  36.032 237.236  1.00 20.00     0.102 A 
HETATM    2  C2  FUN  3723       2.697  35.102 236.195  1.00 20.00     0.059 A 
HETATM    3 CL1  FUN  3723       4.108  34.080 236.058  1.00 20.00    -0.083 Cl
HETATM    4  C3  FUN  3723       1.699  34.899 235.233  1.00 20.00     0.055 A 
HETATM    5  C4  FUN  3723       0.511  35.610 235.367  1.00 20.00     0.047 A 
HETATM    6  C10 FUN  3723       0.422  36.569 236.388  1.00 20.00     0.068 A 
HETATM    7  C11 FUN  3723       1.433  36.795 237.318  1.00 20.00     0.047 A 
ENDROOT
BRANCH   5   8
HETATM    8  N2  FUN  3723      -0.538  35.486 234.437  1.00 20.00    -0.383 N 
ATOM      9  H2  FUN  3723      -1.371  34.946 234.674  1.00  0.00     0.160 HD
BRANCH   8  10
HETATM   10  C5  FUN  3723      -0.432  36.137 233.124  1.00 20.00     0.185 C 
BRANCH  10  11
HETATM   11  C6  FUN  3723      -0.060  35.103 232.097  1.00 20.00     0.070 A 
HETATM   12  C7  FUN  3723       1.147  34.955 231.556  1.00 20.00     0.036 A 
HETATM   13  C8  FUN  3723       0.938  33.821 230.650  1.00 20.00     0.027 A 
HETATM   14  C9  FUN  3723      -0.344  33.503 230.848  1.00 20.00     0.142 A 
HETATM   15  O3  FUN  3723      -1.041  34.292 231.677  1.00 20.00    -0.325 OA
ENDBRANCH  10  11
ENDBRANCH   8  10
ENDBRANCH   5   8
BRANCH   6  16
HETATM   16  C12 FUN  3723      -0.825  37.406 236.584  1.00 20.00     0.211 C 
HETATM   17  O4  FUN  3723      -0.739  38.610 236.636  1.00 20.00    -0.644 OA
HETATM   18  O5  FUN  3723      -1.982  36.782 236.684  1.00 20.00    -0.644 OA
ENDBRANCH   6  16
BRANCH   1  19
HETATM   19  S1  FUN  3723       3.886  36.299 238.422  1.00 20.00     0.258 S 
HETATM   20  O1  FUN  3723       4.981  36.976 237.692  1.00 20.00    -0.201 OA
HETATM   21  O2  FUN  3723       4.231  35.050 239.060  1.00 20.00    -0.201 OA
BRANCH  19  22
HETATM   22  N1  FUN  3723       3.349  37.278 239.388  1.00 20.00    -0.324 N 
ATOM     23  H12 FUN  3723       3.222  38.278 239.227  1.00  0.00     0.169 HD
ATOM     24  H11 FUN  3723       3.136  36.749 240.233  1.00  0.00     0.169 HD
ENDBRANCH  19  22
ENDBRANCH   1  19
TORSDOF 6
ENDMDL
MODEL 6
REMARK VINA RESULT:      -5.7     11.994     13.728
REMARK  6 active torsions:
REMARK  status: ('A' for Active; 'I' for Inactive)
REMARK    1  A    between atoms: N1_1  and  S1_4 
REMARK    2  A    between atoms: C1_7  and  S1_4 
REMARK    3  A    between atoms: C4_11  and  N2_12 
REMARK    4  A    between atoms: C5_14  and  N2_12 
REMARK    5  A    between atoms: C5_14  and  C6_15 
REMARK    6  A    between atoms: C10_20  and  C12_22 
ROOT
HETATM    1  C1  FUN  3723       3.976  32.536 237.756  1.00 20.00     0.102 A 
HETATM    2  C2  FUN  3723       3.527  32.449 236.433  1.00 20.00     0.059 A 
HETATM    3 CL1  FUN  3723       3.177  30.890 235.725  1.00 20.00    -0.083 Cl
HETATM    4  C3  FUN  3723       3.300  33.560 235.610  1.00 20.00     0.055 A 
HETATM    5  C4  FUN  3723       3.458  34.825 236.166  1.00 20.00     0.047 A 
HETATM    6  C10 FUN  3723       3.942  34.919 237.480  1.00 20.00     0.068 A 
HETATM    7  C11 FUN  3723       4.204  33.810 238.281  1.00 20.00     0.047 A 
ENDROOT
BRANCH   5   8
HETATM    8  N2  FUN  3723       3.272  35.998 235.409  1.00 20.00    -0.383 N 
ATOM      9  H2  FUN  3723       4.011  36.701 235.366  1.00  0.00     0.160 HD
BRANCH   8  10
HETATM   10  C5  FUN  3723       2.014  36.206 234.681  1.00 20.00     0.185 C 
BRANCH  10  11
HETATM   11  C6  FUN  3723       1.009  36.825 235.614  1.00 20.00     0.070 A 
HETATM   12  C7  FUN  3723       1.276  37.762 236.521  1.00 20.00     0.036 A 
HETATM   13  C8  FUN  3723      -0.042  37.991 237.121  1.00 20.00     0.027 A 
HETATM   14  C9  FUN  3723      -0.836  37.164 236.437  1.00 20.00     0.142 A 
HETATM   15  O3  FUN  3723      -0.247  36.365 235.537  1.00 20.00    -0.325 OA
ENDBRANCH  10  11
ENDBRANCH   8  10
ENDBRANCH   5   8
BRANCH   6  16
HETATM   16  C12 FUN  3723       4.170  36.258 238.149  1.00 20.00     0.211 C 
HETATM   17  O4  FUN  3723       3.746  36.454 239.263  1.00 20.00    -0.644 OA
HETATM   18  O5  FUN  3723       4.842  37.177 237.483  1.00 20.00    -0.644 OA
ENDBRANCH   6  16
BRANCH   1  19
HETATM   19  S1  FUN  3723       4.291  31.120 238.769  1.00 20.00     0.258 S 
HETATM   20  O1  FUN  3723       5.401  30.390 238.119  1.00 20.00    -0.201 OA
HETATM   21  O2  FUN  3723       3.069  30.373 238.958  1.00 20.00    -0.201 OA
BRANCH  19  22
HETATM   22  N1  FUN  3723       4.815  31.645 240.046  1.00 20.00    -0.324 N 
ATOM     23  H12 FUN  3723       4.386  32.369 240.623  1.00  0.00     0.169 HD
ATOM     24  H11 FUN  3723       5.681  31.136 240.223  1.00  0.00     0.169 HD
ENDBRANCH  19  22
ENDBRANCH   1  19
TORSDOF 6
ENDMDL
MODEL 7
REMARK VINA RESULT:      -5.6      3.368      3.828
REMARK  6 active torsions:
REMARK  status: ('A' for Active; 'I' for Inactive)
REMARK    1  A    between atoms: N1_1  and  S1_4 
REMARK    2  A    between atoms: C1_7  and  S1_4 
REMARK    3  A    between atoms: C4_11  and  N2_12 
REMARK    4  A    between atoms: C5_14  and  N2_12 
REMARK    5  A    between atoms: C5_14  and  C6_15 
REMARK    6  A    between atoms: C10_20  and  C12_22 
ROOT
HETATM    1  C1  FUN  3723      -0.927  37.604 228.590  1.00 20.00     0.102 A 
HETATM    2  C2  FUN  3723       0.343  37.242 228.128  1.00 20.00     0.059 A 
HETATM    3 CL1  FUN  3723       0.883  35.585 228.247  1.00 20.00    -0.083 Cl
HETATM    4  C3  FUN  3723       1.241  38.136 227.529  1.00 20.00     0.055 A 
HETATM    5  C4  FUN  3723       0.813  39.441 227.312  1.00 20.00     0.047 A 
HETATM    6  C10 FUN  3723      -0.446  39.819 227.804  1.00 20.00     0.068 A 
HETATM    7  C11 FUN  3723      -1.319  38.935 228.434  1.00 20.00     0.047 A 
ENDROOT
BRANCH   5   8
HETATM    8  N2  FUN  3723       1.653  40.413 226.736  1.00 20.00    -0.383 N 
ATOM      9  H2  FUN  3723       1.256  41.154 226.158  1.00  0.00     0.160 HD
BRANCH   8  10
HETATM   10  C5  FUN  3723       3.102  40.357 226.970  1.00 20.00     0.185 C 
BRANCH  10  11
HETATM   11  C6  FUN  3723       3.436  41.210 228.163  1.00 20.00     0.070 A 
HETATM   12  C7  FUN  3723       4.615  41.786 228.391  1.00 20.00     0.036 A 
HETATM   13  C8  FUN  3723       4.374  42.481 229.659  1.00 20.00     0.027 A 
HETATM   14  C9  FUN  3723       3.095  42.202 229.923  1.00 20.00     0.142 A 
HETATM   15  O3  FUN  3723       2.471  41.370 229.078  1.00 20.00    -0.325 OA
ENDBRANCH  10  11
ENDBRANCH   8  10
ENDBRANCH   5   8
BRANCH   6  16
HETATM   16  C12 FUN  3723      -0.975  41.228 227.635  1.00 20.00     0.211 C 
HETATM   17  O4  FUN  3723      -0.305  42.168 227.989  1.00 20.00    -0.644 OA
HETATM   18  O5  FUN  3723      -2.167  41.382 227.091  1.00 20.00    -0.644 OA
ENDBRANCH   6  16
BRANCH   1  19
HETATM   19  S1  FUN  3723      -2.034  36.469 229.376  1.00 20.00     0.258 S 
HETATM   20  O1  FUN  3723      -1.343  36.003 230.598  1.00 20.00    -0.201 OA
HETATM   21  O2  FUN  3723      -2.425  35.439 228.441  1.00 20.00    -0.201 OA
BRANCH  19  22
HETATM   22  N1  FUN  3723      -3.190  37.273 229.820  1.00 20.00    -0.324 N 
ATOM     23  H12 FUN  3723      -3.989  36.936 230.358  1.00  0.00     0.169 HD
ATOM     24  H11 FUN  3723      -3.021  38.219 229.480  1.00  0.00     0.169 HD
ENDBRANCH  19  22
ENDBRANCH   1  19
TORSDOF 6
ENDMDL
MODEL 8
REMARK VINA RESULT:      -5.6     11.583     13.043
REMARK  6 active torsions:
REMARK  status: ('A' for Active; 'I' for Inactive)
REMARK    1  A    between atoms: N1_1  and  S1_4 
REMARK    2  A    between atoms: C1_7  and  S1_4 
REMARK    3  A    between atoms: C4_11  and  N2_12 
REMARK    4  A    between atoms: C5_14  and  N2_12 
REMARK    5  A    between atoms: C5_14  and  C6_15 
REMARK    6  A    between atoms: C10_20  and  C12_22 
ROOT
HETATM    1  C1  FUN  3723       0.432  36.205 236.575  1.00 20.00     0.102 A 
HETATM    2  C2  FUN  3723       0.590  34.855 236.241  1.00 20.00     0.059 A 
HETATM    3 CL1  FUN  3723      -0.688  34.002 235.409  1.00 20.00    -0.083 Cl
HETATM    4  C3  FUN  3723       1.748  34.114 236.508  1.00 20.00     0.055 A 
HETATM    5  C4  FUN  3723       2.833  34.780 237.068  1.00 20.00     0.047 A 
HETATM    6  C10 FUN  3723       2.669  36.124 237.438  1.00 20.00     0.068 A 
HETATM    7  C11 FUN  3723       1.501  36.845 237.206  1.00 20.00     0.047 A 
ENDROOT
BRANCH   5   8
HETATM    8  N2  FUN  3723       4.030  34.112 237.390  1.00 20.00    -0.383 N 
ATOM      9  H2  FUN  3723       4.905  34.390 236.945  1.00  0.00     0.160 HD
BRANCH   8  10
HETATM   10  C5  FUN  3723       4.015  33.016 238.367  1.00 20.00     0.185 C 
BRANCH  10  11
HETATM   11  C6  FUN  3723       4.473  31.754 237.690  1.00 20.00     0.070 A 
HETATM   12  C7  FUN  3723       4.506  31.555 236.374  1.00 20.00     0.036 A 
HETATM   13  C8  FUN  3723       5.031  30.189 236.285  1.00 20.00     0.027 A 
HETATM   14  C9  FUN  3723       5.228  29.853 237.562  1.00 20.00     0.142 A 
HETATM   15  O3  FUN  3723       4.845  30.743 238.487  1.00 20.00    -0.325 OA
ENDBRANCH  10  11
ENDBRANCH   8  10
ENDBRANCH   5   8
BRANCH   6  16
HETATM   16  C12 FUN  3723       3.791  36.913 238.080  1.00 20.00     0.211 C 
HETATM   17  O4  FUN  3723       3.646  37.371 239.189  1.00 20.00    -0.644 OA
HETATM   18  O5  FUN  3723       4.909  37.070 237.398  1.00 20.00    -0.644 OA
ENDBRANCH   6  16
BRANCH   1  19
HETATM   19  S1  FUN  3723      -1.052  37.116 236.263  1.00 20.00     0.258 S 
HETATM   20  O1  FUN  3723      -0.801  38.489 236.755  1.00 20.00    -0.201 OA
HETATM   21  O2  FUN  3723      -2.180  36.431 236.851  1.00 20.00    -0.201 OA
BRANCH  19  22
HETATM   22  N1  FUN  3723      -1.170  37.206 234.794  1.00 20.00    -0.324 N 
ATOM     23  H12 FUN  3723      -1.999  36.986 234.241  1.00  0.00     0.169 HD
ATOM     24  H11 FUN  3723      -0.263  37.529 234.458  1.00  0.00     0.169 HD
ENDBRANCH  19  22
ENDBRANCH   1  19
TORSDOF 6
ENDMDL
MODEL 9
REMARK VINA RESULT:      -5.6     10.786     12.756
REMARK  6 active torsions:
REMARK  status: ('A' for Active; 'I' for Inactive)
REMARK    1  A    between atoms: N1_1  and  S1_4 
REMARK    2  A    between atoms: C1_7  and  S1_4 
REMARK    3  A    between atoms: C4_11  and  N2_12 
REMARK    4  A    between atoms: C5_14  and  N2_12 
REMARK    5  A    between atoms: C5_14  and  C6_15 
REMARK    6  A    between atoms: C10_20  and  C12_22 
ROOT
HETATM    1  C1  FUN  3723       3.485  35.643 237.180  1.00 20.00     0.102 A 
HETATM    2  C2  FUN  3723       2.440  36.085 236.361  1.00 20.00     0.059 A 
HETATM    3 CL1  FUN  3723       1.919  37.752 236.425  1.00 20.00    -0.083 Cl
HETATM    4  C3  FUN  3723       1.773  35.271 235.437  1.00 20.00     0.055 A 
HETATM    5  C4  FUN  3723       2.227  33.967 235.271  1.00 20.00     0.047 A 
HETATM    6  C10 FUN  3723       3.250  33.506 236.114  1.00 20.00     0.068 A 
HETATM    7  C11 FUN  3723       3.883  34.310 237.059  1.00 20.00     0.047 A 
ENDROOT
BRANCH   5   8
HETATM    8  N2  FUN  3723       1.604  33.071 234.381  1.00 20.00    -0.383 N 
ATOM      9  H2  FUN  3723       2.013  32.151 234.213  1.00  0.00     0.160 HD
BRANCH   8  10
HETATM   10  C5  FUN  3723       0.366  33.463 233.696  1.00 20.00     0.185 C 
BRANCH  10  11
HETATM   11  C6  FUN  3723       0.686  33.796 232.265  1.00 20.00     0.070 A 
HETATM   12  C7  FUN  3723       1.161  34.964 231.834  1.00 20.00     0.036 A 
HETATM   13  C8  FUN  3723       1.288  34.728 230.392  1.00 20.00     0.027 A 
HETATM   14  C9  FUN  3723       0.887  33.462 230.253  1.00 20.00     0.142 A 
HETATM   15  O3  FUN  3723       0.438  32.845 231.355  1.00 20.00    -0.325 OA
ENDBRANCH  10  11
ENDBRANCH   8  10
ENDBRANCH   5   8
BRANCH   6  16
HETATM   16  C12 FUN  3723       3.781  32.092 236.019  1.00 20.00     0.211 C 
HETATM   17  O4  FUN  3723       4.125  31.649 234.949  1.00 20.00    -0.644 OA
HETATM   18  O5  FUN  3723       3.859  31.382 237.128  1.00 20.00    -0.644 OA
ENDBRANCH   6  16
BRANCH   1  19
HETATM   19  S1  FUN  3723       4.293  36.676 238.367  1.00 20.00     0.258 S 
HETATM   20  O1  FUN  3723       5.306  35.825 239.029  1.00 20.00    -0.201 OA
HETATM   21  O2  FUN  3723       3.312  37.281 239.238  1.00 20.00    -0.201 OA
BRANCH  19  22
HETATM   22  N1  FUN  3723       5.032  37.689 237.587  1.00 20.00    -0.324 N 
ATOM     23  H12 FUN  3723       4.846  38.692 237.571  1.00  0.00     0.169 HD
ATOM     24  H11 FUN  3723       5.753  37.178 237.078  1.00  0.00     0.169 HD
ENDBRANCH  19  22
ENDBRANCH   1  19
TORSDOF 6
ENDMDL
