MODEL 1
REMARK VINA RESULT:      -4.7      0.000      0.000
REMARK  3 active torsions:
REMARK  status: ('A' for Active; 'I' for Inactive)
REMARK    1  A    between atoms: CAI_5  and  CAJ_2 
REMARK    2  A    between atoms: CAI_5  and  OAG_7 
REMARK    3  A    between atoms: CAH_8  and  OAG_7 
ROOT
HETATM    1  CAI ICF  4415       1.578  41.545 228.676  1.00 20.00     0.330 C 
HETATM    2 CLAF ICF  4415       1.465  39.989 227.765  1.00 20.00    -0.086 Cl
ENDROOT
BRANCH   1   3
HETATM    3  CAJ ICF  4415       2.330  42.571 227.834  1.00 20.00     0.427 C 
HETATM    4  FAE ICF  4415       3.580  42.592 228.263  1.00 20.00    -0.167 F 
HETATM    5  FAC ICF  4415       2.336  42.197 226.564  1.00 20.00    -0.167 F 
HETATM    6  FAD ICF  4415       1.774  43.781 227.940  1.00 20.00    -0.167 F 
ENDBRANCH   1   3
BRANCH   1   7
HETATM    7  OAG ICF  4415       0.260  42.014 228.979  1.00 20.00    -0.302 OA
BRANCH   7   8
HETATM    8  CAH ICF  4415      -0.636  41.210 228.207  1.00 20.00     0.501 C 
HETATM    9  FAB ICF  4415      -1.702  40.889 228.970  1.00 20.00    -0.185 F 
HETATM   10  FAA ICF  4415      -1.014  41.881 227.095  1.00 20.00    -0.185 F 
ENDBRANCH   7   8
ENDBRANCH   1   7
TORSDOF 3
ENDMDL
MODEL 2
REMARK VINA RESULT:      -4.4      1.733      3.256
REMARK  3 active torsions:
REMARK  status: ('A' for Active; 'I' for Inactive)
REMARK    1  A    between atoms: CAI_5  and  CAJ_2 
REMARK    2  A    between atoms: CAI_5  and  OAG_7 
REMARK    3  A    between atoms: CAH_8  and  OAG_7 
ROOT
HETATM    1  CAI ICF  4415       1.738  41.398 228.032  1.00 20.00     0.330 C 
HETATM    2 CLAF ICF  4415       0.180  40.590 228.459  1.00 20.00    -0.086 Cl
ENDROOT
BRANCH   1   3
HETATM    3  CAJ ICF  4415       1.481  42.471 226.980  1.00 20.00     0.427 C 
HETATM    4  FAE ICF  4415       1.762  43.639 227.531  1.00 20.00    -0.167 F 
HETATM    5  FAC ICF  4415       2.292  42.296 225.947  1.00 20.00    -0.167 F 
HETATM    6  FAD ICF  4415       0.213  42.441 226.560  1.00 20.00    -0.167 F 
ENDBRANCH   1   3
BRANCH   1   7
HETATM    7  OAG ICF  4415       2.310  41.977 229.210  1.00 20.00    -0.302 OA
BRANCH   7   8
HETATM    8  CAH ICF  4415       3.720  41.753 229.118  1.00 20.00     0.501 C 
HETATM    9  FAB ICF  4415       3.957  40.850 228.143  1.00 20.00    -0.185 F 
HETATM   10  FAA ICF  4415       4.355  42.921 228.868  1.00 20.00    -0.185 F 
ENDBRANCH   7   8
ENDBRANCH   1   7
TORSDOF 3
ENDMDL
MODEL 3
REMARK VINA RESULT:      -4.4      1.764      2.287
REMARK  3 active torsions:
REMARK  status: ('A' for Active; 'I' for Inactive)
REMARK    1  A    between atoms: CAI_5  and  CAJ_2 
REMARK    2  A    between atoms: CAI_5  and  OAG_7 
REMARK    3  A    between atoms: CAH_8  and  OAG_7 
ROOT
HETATM    1  CAI ICF  4415       0.412  41.709 227.300  1.00 20.00     0.330 C 
HETATM    2 CLAF ICF  4415       0.671  40.045 226.650  1.00 20.00    -0.086 Cl
ENDROOT
BRANCH   1   3
HETATM    3  CAJ ICF  4415       1.447  42.655 226.698  1.00 20.00     0.427 C 
HETATM    4  FAE ICF  4415       0.792  43.549 225.978  1.00 20.00    -0.167 F 
HETATM    5  FAC ICF  4415       2.091  43.294 227.663  1.00 20.00    -0.167 F 
HETATM    6  FAD ICF  4415       2.324  41.990 225.941  1.00 20.00    -0.167 F 
ENDBRANCH   1   3
BRANCH   1   7
HETATM    7  OAG ICF  4415      -0.913  42.144 226.975  1.00 20.00    -0.302 OA
BRANCH   7   8
HETATM    8  CAH ICF  4415      -1.500  41.092 226.205  1.00 20.00     0.501 C 
HETATM    9  FAB ICF  4415      -2.661  40.722 226.784  1.00 20.00    -0.185 F 
HETATM   10  FAA ICF  4415      -1.698  41.510 224.934  1.00 20.00    -0.185 F 
ENDBRANCH   7   8
ENDBRANCH   1   7
TORSDOF 3
ENDMDL
MODEL 4
REMARK VINA RESULT:      -4.3      1.992      3.623
REMARK  3 active torsions:
REMARK  status: ('A' for Active; 'I' for Inactive)
REMARK    1  A    between atoms: CAI_5  and  CAJ_2 
REMARK    2  A    between atoms: CAI_5  and  OAG_7 
REMARK    3  A    between atoms: CAH_8  and  OAG_7 
ROOT
HETATM    1  CAI ICF  4415       2.132  41.355 226.739  1.00 20.00     0.330 C 
HETATM    2 CLAF ICF  4415       3.277  40.040 227.213  1.00 20.00    -0.086 Cl
ENDROOT
BRANCH   1   3
HETATM    3  CAJ ICF  4415       0.699  40.887 226.973  1.00 20.00     0.427 C 
HETATM    4  FAE ICF  4415      -0.010  41.948 227.316  1.00 20.00    -0.167 F 
HETATM    5  FAC ICF  4415       0.194  40.399 225.850  1.00 20.00    -0.167 F 
HETATM    6  FAD ICF  4415       0.646  39.955 227.928  1.00 20.00    -0.167 F 
ENDBRANCH   1   3
BRANCH   1   7
HETATM    7  OAG ICF  4415       2.409  42.527 227.513  1.00 20.00    -0.302 OA
BRANCH   7   8
HETATM    8  CAH ICF  4415       3.138  42.082 228.661  1.00 20.00     0.501 C 
HETATM    9  FAB ICF  4415       4.163  42.932 228.883  1.00 20.00    -0.185 F 
HETATM   10  FAA ICF  4415       2.314  42.020 229.731  1.00 20.00    -0.185 F 
ENDBRANCH   7   8
ENDBRANCH   1   7
TORSDOF 3
ENDMDL
MODEL 5
REMARK VINA RESULT:      -4.2      9.815     10.660
REMARK  3 active torsions:
REMARK  status: ('A' for Active; 'I' for Inactive)
REMARK    1  A    between atoms: CAI_5  and  CAJ_2 
REMARK    2  A    between atoms: CAI_5  and  OAG_7 
REMARK    3  A    between atoms: CAH_8  and  OAG_7 
ROOT
HETATM    1  CAI ICF  4415       2.195  36.681 237.625  1.00 20.00     0.330 C 
HETATM    2 CLAF ICF  4415       3.731  37.606 237.414  1.00 20.00    -0.086 Cl
ENDROOT
BRANCH   1   3
HETATM    3  CAJ ICF  4415       1.045  37.456 236.989  1.00 20.00     0.427 C 
HETATM    4  FAE ICF  4415       0.454  38.144 237.949  1.00 20.00    -0.167 F 
HETATM    5  FAC ICF  4415       1.517  38.314 236.097  1.00 20.00    -0.167 F 
HETATM    6  FAD ICF  4415       0.178  36.631 236.396  1.00 20.00    -0.167 F 
ENDBRANCH   1   3
BRANCH   1   7
HETATM    7  OAG ICF  4415       2.329  35.393 237.016  1.00 20.00    -0.302 OA
BRANCH   7   8
HETATM    8  CAH ICF  4415       3.370  35.520 236.042  1.00 20.00     0.501 C 
HETATM    9  FAB ICF  4415       4.131  34.405 236.068  1.00 20.00    -0.185 F 
HETATM   10  FAA ICF  4415       2.831  35.717 234.818  1.00 20.00    -0.185 F 
ENDBRANCH   7   8
ENDBRANCH   1   7
TORSDOF 3
ENDMDL
MODEL 6
REMARK VINA RESULT:      -4.1      9.925     10.967
REMARK  3 active torsions:
REMARK  status: ('A' for Active; 'I' for Inactive)
REMARK    1  A    between atoms: CAI_5  and  CAJ_2 
REMARK    2  A    between atoms: CAI_5  and  OAG_7 
REMARK    3  A    between atoms: CAH_8  and  OAG_7 
ROOT
HETATM    1  CAI ICF  4415       1.949  36.234 237.012  1.00 20.00     0.330 C 
HETATM    2 CLAF ICF  4415       0.990  34.720 237.235  1.00 20.00    -0.086 Cl
ENDROOT
BRANCH   1   3
HETATM    3  CAJ ICF  4415       0.999  37.418 236.868  1.00 20.00     0.427 C 
HETATM    4  FAE ICF  4415      -0.170  36.940 236.477  1.00 20.00    -0.167 F 
HETATM    5  FAC ICF  4415       0.831  38.010 238.041  1.00 20.00    -0.167 F 
HETATM    6  FAD ICF  4415       1.465  38.305 235.984  1.00 20.00    -0.167 F 
ENDBRANCH   1   3
BRANCH   1   7
HETATM    7  OAG ICF  4415       2.811  36.419 238.140  1.00 20.00    -0.302 OA
BRANCH   7   8
HETATM    8  CAH ICF  4415       4.112  36.684 237.606  1.00 20.00     0.501 C 
HETATM    9  FAB ICF  4415       4.279  35.958 236.481  1.00 20.00    -0.185 F 
HETATM   10  FAA ICF  4415       4.245  38.007 237.360  1.00 20.00    -0.185 F 
ENDBRANCH   7   8
ENDBRANCH   1   7
TORSDOF 3
ENDMDL
MODEL 7
REMARK VINA RESULT:      -4.1      1.445      2.091
REMARK  3 active torsions:
REMARK  status: ('A' for Active; 'I' for Inactive)
REMARK    1  A    between atoms: CAI_5  and  CAJ_2 
REMARK    2  A    between atoms: CAI_5  and  OAG_7 
REMARK    3  A    between atoms: CAH_8  and  OAG_7 
ROOT
HETATM    1  CAI ICF  4415       0.672  41.157 228.167  1.00 20.00     0.330 C 
HETATM    2 CLAF ICF  4415       1.126  40.881 226.440  1.00 20.00    -0.086 Cl
ENDROOT
BRANCH   1   3
HETATM    3  CAJ ICF  4415       1.711  42.058 228.825  1.00 20.00     0.427 C 
HETATM    4  FAE ICF  4415       1.915  43.082 228.015  1.00 20.00    -0.167 F 
HETATM    5  FAC ICF  4415       1.242  42.527 229.972  1.00 20.00    -0.167 F 
HETATM    6  FAD ICF  4415       2.851  41.398 229.048  1.00 20.00    -0.167 F 
ENDBRANCH   1   3
BRANCH   1   7
HETATM    7  OAG ICF  4415      -0.624  41.760 228.226  1.00 20.00    -0.302 OA
BRANCH   7   8
HETATM    8  CAH ICF  4415      -1.533  40.716 228.585  1.00 20.00     0.501 C 
HETATM    9  FAB ICF  4415      -2.276  40.393 227.505  1.00 20.00    -0.185 F 
HETATM   10  FAA ICF  4415      -0.845  39.646 229.044  1.00 20.00    -0.185 F 
ENDBRANCH   7   8
ENDBRANCH   1   7
TORSDOF 3
ENDMDL
MODEL 8
REMARK VINA RESULT:      -4.1      1.628      1.872
REMARK  3 active torsions:
REMARK  status: ('A' for Active; 'I' for Inactive)
REMARK    1  A    between atoms: CAI_5  and  CAJ_2 
REMARK    2  A    between atoms: CAI_5  and  OAG_7 
REMARK    3  A    between atoms: CAH_8  and  OAG_7 
ROOT
HETATM    1  CAI ICF  4415       1.867  41.146 227.588  1.00 20.00     0.330 C 
HETATM    2 CLAF ICF  4415       3.474  40.332 227.458  1.00 20.00    -0.086 Cl
ENDROOT
BRANCH   1   3
HETATM    3  CAJ ICF  4415       2.053  42.548 228.159  1.00 20.00     0.427 C 
HETATM    4  FAE ICF  4415       1.297  42.637 229.239  1.00 20.00    -0.167 F 
HETATM    5  FAC ICF  4415       3.315  42.724 228.524  1.00 20.00    -0.167 F 
HETATM    6  FAD ICF  4415       1.714  43.481 227.266  1.00 20.00    -0.167 F 
ENDBRANCH   1   3
BRANCH   1   7
HETATM    7  OAG ICF  4415       1.262  41.209 226.292  1.00 20.00    -0.302 OA
BRANCH   7   8
HETATM    8  CAH ICF  4415      -0.110  40.847 226.476  1.00 20.00     0.501 C 
HETATM    9  FAB ICF  4415      -0.212  40.063 227.570  1.00 20.00    -0.185 F 
HETATM   10  FAA ICF  4415      -0.866  41.961 226.599  1.00 20.00    -0.185 F 
ENDBRANCH   7   8
ENDBRANCH   1   7
TORSDOF 3
ENDMDL
MODEL 9
REMARK VINA RESULT:      -4.1     10.960     11.603
REMARK  3 active torsions:
REMARK  status: ('A' for Active; 'I' for Inactive)
REMARK    1  A    between atoms: CAI_5  and  CAJ_2 
REMARK    2  A    between atoms: CAI_5  and  OAG_7 
REMARK    3  A    between atoms: CAH_8  and  OAG_7 
ROOT
HETATM    1  CAI ICF  4415       3.384  36.319 237.935  1.00 20.00     0.330 C 
HETATM    2 CLAF ICF  4415       4.077  35.502 236.481  1.00 20.00    -0.086 Cl
ENDROOT
BRANCH   1   3
HETATM    3  CAJ ICF  4415       4.435  36.365 239.039  1.00 20.00     0.427 C 
HETATM    4  FAE ICF  4415       5.434  37.111 238.602  1.00 20.00    -0.167 F 
HETATM    5  FAC ICF  4415       3.931  36.942 240.120  1.00 20.00    -0.167 F 
HETATM    6  FAD ICF  4415       4.863  35.138 239.348  1.00 20.00    -0.167 F 
ENDBRANCH   1   3
BRANCH   1   7
HETATM    7  OAG ICF  4415       2.970  37.643 237.582  1.00 20.00    -0.302 OA
BRANCH   7   8
HETATM    8  CAH ICF  4415       1.648  37.518 237.050  1.00 20.00     0.501 C 
HETATM    9  FAB ICF  4415       0.768  38.008 237.949  1.00 20.00    -0.185 F 
HETATM   10  FAA ICF  4415       1.563  38.177 235.872  1.00 20.00    -0.185 F 
ENDBRANCH   7   8
ENDBRANCH   1   7
TORSDOF 3
ENDMDL
