MODEL 1
REMARK VINA RESULT:      -6.8      0.000      0.000
REMARK  6 active torsions:
REMARK  status: ('A' for Active; 'I' for Inactive)
REMARK    1  A    between atoms: C2_3  and  C21_5 
REMARK       I    between atoms: C21_5  and  N21_6 
REMARK    2  A    between atoms: C3_9  and  O3_10 
REMARK    3  A    between atoms: C4_12  and  N4_13 
REMARK    4  A    between atoms: C5_17  and  O5_18 
REMARK    5  A    between atoms: C10_27  and  O10_28 
REMARK    6  A    between atoms: C4B_36  and  O13_37 
ROOT
HETATM    1  C1  DXT  3265       1.397  36.164 235.567  1.00 20.00     0.210 C 
HETATM    2  O1  DXT  3265       1.829  37.002 234.707  1.00 20.00    -0.288 OA
HETATM    3  C2  DXT  3265       2.054  35.780 236.754  1.00 20.00     0.112 C 
HETATM    4  C3  DXT  3265       1.615  34.712 237.439  1.00 20.00     0.096 C 
HETATM    5  C4  DXT  3265       0.631  33.682 236.875  1.00 20.00     0.289 C 
HETATM    6  C4A DXT  3265      -0.084  34.189 235.645  1.00 20.00     0.105 C 
HETATM    7  C5  DXT  3265       0.468  33.553 234.371  1.00 20.00     0.138 C 
HETATM    8  C5A DXT  3265      -0.238  33.900 233.086  1.00 20.00     0.064 C 
HETATM    9  C6  DXT  3265       0.518  33.597 231.807  1.00 20.00     0.027 C 
HETATM   10  C61 DXT  3265       1.068  32.187 231.798  1.00 20.00     0.016 C 
HETATM   11  C6A DXT  3265      -0.414  33.885 230.693  1.00 20.00    -0.037 A 
HETATM   12  C7  DXT  3265      -0.341  33.170 229.526  1.00 20.00     0.009 A 
HETATM   13  C8  DXT  3265      -1.214  33.459 228.497  1.00 20.00     0.003 A 
HETATM   14  C9  DXT  3265      -2.166  34.454 228.576  1.00 20.00     0.037 A 
HETATM   15  C10 DXT  3265      -2.254  35.200 229.713  1.00 20.00     0.080 A 
HETATM   16  C6B DXT  3265      -1.379  34.882 230.786  1.00 20.00     0.054 A 
HETATM   17  C11 DXT  3265      -1.560  35.639 232.043  1.00 20.00     0.196 C 
HETATM   18  O11 DXT  3265      -2.266  36.682 231.986  1.00 20.00    -0.287 OA
HETATM   19  C5B DXT  3265      -0.884  35.255 233.131  1.00 20.00     0.050 C 
HETATM   20  C12 DXT  3265      -0.804  36.079 234.257  1.00 20.00     0.202 C 
HETATM   21  O12 DXT  3265      -1.439  37.184 234.308  1.00 20.00    -0.289 OA
HETATM   22  C4B DXT  3265      -0.028  35.687 235.485  1.00 20.00     0.196 C 
ENDROOT
BRANCH   3  23
HETATM   23  C21 DXT  3265       3.379  36.253 237.011  1.00 20.00     0.255 C 
HETATM   24  O21 DXT  3265       3.652  36.927 238.046  1.00 20.00    -0.268 OA
HETATM   25  N21 DXT  3265       4.400  36.025 236.183  1.00 20.00    -0.366 N 
ATOM     26 2H21 DXT  3265       4.180  35.482 235.348  1.00  0.00     0.159 HD
ATOM     27 1H21 DXT  3265       5.345  36.363 236.366  1.00  0.00     0.159 HD
ENDBRANCH   3  23
BRANCH   4  28
HETATM   28  O3  DXT  3265       2.042  34.374 238.646  1.00 20.00    -0.362 OA
ATOM     29  H3  DXT  3265       2.945  34.446 238.933  1.00  0.00     0.217 HD
ENDBRANCH   4  28
BRANCH  22  30
HETATM   30  O13 DXT  3265      -0.734  36.290 236.623  1.00 20.00    -0.373 OA
ATOM     31  H13 DXT  3265      -0.070  36.686 237.174  1.00  0.00     0.211 HD
ENDBRANCH  22  30
BRANCH   5  32
HETATM   32  N4  DXT  3265      -0.240  33.139 238.024  1.00 20.00     0.091 N 
HETATM   33  C41 DXT  3265      -0.087  31.639 238.232  1.00 20.00     0.310 C 
HETATM   34  C42 DXT  3265      -1.744  33.343 237.934  1.00 20.00     0.310 C 
ENDBRANCH   5  32
BRANCH   7  35
HETATM   35  O5  DXT  3265       0.838  32.223 234.514  1.00 20.00    -0.394 OA
ATOM     36  H5  DXT  3265       1.557  31.957 233.953  1.00  0.00     0.210 HD
ENDBRANCH   7  35
BRANCH  15  37
HETATM   37  O10 DXT  3265      -3.153  36.166 229.791  1.00 20.00    -0.360 OA
ATOM     38  H10 DXT  3265      -3.920  36.107 230.348  1.00  0.00     0.217 HD
ENDBRANCH  15  37
TORSDOF 6
ENDMDL
MODEL 2
REMARK VINA RESULT:      -6.6      2.762      7.104
REMARK  6 active torsions:
REMARK  status: ('A' for Active; 'I' for Inactive)
REMARK    1  A    between atoms: C2_3  and  C21_5 
REMARK       I    between atoms: C21_5  and  N21_6 
REMARK    2  A    between atoms: C3_9  and  O3_10 
REMARK    3  A    between atoms: C4_12  and  N4_13 
REMARK    4  A    between atoms: C5_17  and  O5_18 
REMARK    5  A    between atoms: C10_27  and  O10_28 
REMARK    6  A    between atoms: C4B_36  and  O13_37 
ROOT
HETATM    1  C1  DXT  3265       0.364  35.020 231.526  1.00 20.00     0.210 C 
HETATM    2  O1  DXT  3265       1.610  35.145 231.285  1.00 20.00    -0.288 OA
HETATM    3  C2  DXT  3265      -0.689  35.390 230.664  1.00 20.00     0.112 C 
HETATM    4  C3  DXT  3265      -1.945  35.441 231.136  1.00 20.00     0.096 C 
HETATM    5  C4  DXT  3265      -2.299  35.417 232.626  1.00 20.00     0.289 C 
HETATM    6  C4A DXT  3265      -1.146  34.946 233.480  1.00 20.00     0.105 C 
HETATM    7  C5  DXT  3265      -0.477  36.107 234.213  1.00 20.00     0.138 C 
HETATM    8  C5A DXT  3265       0.620  35.748 235.181  1.00 20.00     0.064 C 
HETATM    9  C6  DXT  3265       1.530  36.883 235.608  1.00 20.00     0.027 C 
HETATM   10  C61 DXT  3265       0.745  38.098 236.055  1.00 20.00     0.016 C 
HETATM   11  C6A DXT  3265       2.426  36.331 236.650  1.00 20.00    -0.037 A 
HETATM   12  C7  DXT  3265       2.891  37.132 237.660  1.00 20.00     0.009 A 
HETATM   13  C8  DXT  3265       3.730  36.600 238.617  1.00 20.00     0.003 A 
HETATM   14  C9  DXT  3265       4.144  35.284 238.606  1.00 20.00     0.037 A 
HETATM   15  C10 DXT  3265       3.719  34.463 237.605  1.00 20.00     0.080 A 
HETATM   16  C6B DXT  3265       2.828  35.000 236.638  1.00 20.00     0.054 A 
HETATM   17  C11 DXT  3265       2.304  34.065 235.620  1.00 20.00     0.196 C 
HETATM   18  O11 DXT  3265       2.888  32.954 235.509  1.00 20.00    -0.287 OA
HETATM   19  C5B DXT  3265       1.331  34.480 234.802  1.00 20.00     0.050 C 
HETATM   20  C12 DXT  3265       0.988  33.749 233.662  1.00 20.00     0.202 C 
HETATM   21  O12 DXT  3265       1.539  32.626 233.412  1.00 20.00    -0.289 OA
HETATM   22  C4B DXT  3265      -0.084  34.204 232.708  1.00 20.00     0.196 C 
ENDROOT
BRANCH   3  23
HETATM   23  C21 DXT  3265      -0.393  36.079 229.446  1.00 20.00     0.255 C 
HETATM   24  O21 DXT  3265      -0.964  37.167 229.146  1.00 20.00    -0.268 OA
HETATM   25  N21 DXT  3265       0.487  35.623 228.554  1.00 20.00    -0.366 N 
ATOM     26 2H21 DXT  3265       0.948  34.745 228.796  1.00  0.00     0.159 HD
ATOM     27 1H21 DXT  3265       0.699  36.115 227.686  1.00  0.00     0.159 HD
ENDBRANCH   3  23
BRANCH   4  28
HETATM   28  O3  DXT  3265      -3.020  35.602 230.378  1.00 20.00    -0.362 OA
ATOM     29  H3  DXT  3265      -3.441  36.438 230.219  1.00  0.00     0.217 HD
ENDBRANCH   4  28
BRANCH  22  30
HETATM   30  O13 DXT  3265      -0.691  32.982 232.165  1.00 20.00    -0.373 OA
ATOM     31  H13 DXT  3265      -0.228  32.253 232.559  1.00  0.00     0.211 HD
ENDBRANCH  22  30
BRANCH   5  32
HETATM   32  N4  DXT  3265      -3.651  34.702 232.810  1.00 20.00     0.091 N 
HETATM   33  C41 DXT  3265      -3.984  34.419 234.268  1.00 20.00     0.310 C 
HETATM   34  C42 DXT  3265      -3.845  33.361 232.123  1.00 20.00     0.310 C 
ENDBRANCH   5  32
BRANCH   7  35
HETATM   35  O5  DXT  3265      -1.357  37.091 234.641  1.00 20.00    -0.394 OA
ATOM     36  H5  DXT  3265      -1.367  37.868 234.093  1.00  0.00     0.210 HD
ENDBRANCH   7  35
BRANCH  15  37
HETATM   37  O10 DXT  3265       4.124  33.204 237.578  1.00 20.00    -0.360 OA
ATOM     38  H10 DXT  3265       4.266  32.731 236.767  1.00  0.00     0.217 HD
ENDBRANCH  15  37
TORSDOF 6
ENDMDL
MODEL 3
REMARK VINA RESULT:      -6.5      2.448      7.202
REMARK  6 active torsions:
REMARK  status: ('A' for Active; 'I' for Inactive)
REMARK    1  A    between atoms: C2_3  and  C21_5 
REMARK       I    between atoms: C21_5  and  N21_6 
REMARK    2  A    between atoms: C3_9  and  O3_10 
REMARK    3  A    between atoms: C4_12  and  N4_13 
REMARK    4  A    between atoms: C5_17  and  O5_18 
REMARK    5  A    between atoms: C10_27  and  O10_28 
REMARK    6  A    between atoms: C4B_36  and  O13_37 
ROOT
HETATM    1  C1  DXT  3265      -1.558  34.889 235.235  1.00 20.00     0.210 C 
HETATM    2  O1  DXT  3265      -1.972  35.113 236.421  1.00 20.00    -0.288 OA
HETATM    3  C2  DXT  3265      -2.298  34.279 234.200  1.00 20.00     0.112 C 
HETATM    4  C3  DXT  3265      -1.667  33.876 233.085  1.00 20.00     0.096 C 
HETATM    5  C4  DXT  3265      -0.146  33.752 232.962  1.00 20.00     0.289 C 
HETATM    6  C4A DXT  3265       0.579  34.485 234.065  1.00 20.00     0.105 C 
HETATM    7  C5  DXT  3265       1.130  33.522 235.114  1.00 20.00     0.138 C 
HETATM    8  C5A DXT  3265       1.967  34.129 236.210  1.00 20.00     0.064 C 
HETATM    9  C6  DXT  3265       2.184  33.266 237.438  1.00 20.00     0.027 C 
HETATM   10  C61 DXT  3265       2.642  31.871 237.072  1.00 20.00     0.016 C 
HETATM   11  C6A DXT  3265       3.136  34.002 238.302  1.00 20.00    -0.037 A 
HETATM   12  C7  DXT  3265       4.013  33.321 239.105  1.00 20.00     0.009 A 
HETATM   13  C8  DXT  3265       4.887  34.026 239.907  1.00 20.00     0.003 A 
HETATM   14  C9  DXT  3265       4.917  35.404 239.956  1.00 20.00     0.037 A 
HETATM   15  C10 DXT  3265       4.044  36.115 239.188  1.00 20.00     0.080 A 
HETATM   16  C6B DXT  3265       3.168  35.392 238.336  1.00 20.00     0.054 A 
HETATM   17  C11 DXT  3265       2.300  36.186 237.441  1.00 20.00     0.196 C 
HETATM   18  O11 DXT  3265       2.194  37.418 237.692  1.00 20.00    -0.287 OA
HETATM   19  C5B DXT  3265       1.591  35.554 236.500  1.00 20.00     0.050 C 
HETATM   20  C12 DXT  3265       0.563  36.206 235.814  1.00 20.00     0.202 C 
HETATM   21  O12 DXT  3265       0.325  37.443 236.009  1.00 20.00    -0.289 OA
HETATM   22  C4B DXT  3265      -0.270  35.512 234.769  1.00 20.00     0.196 C 
ENDROOT
BRANCH   3  23
HETATM   23  C21 DXT  3265      -3.591  33.739 234.482  1.00 20.00     0.255 C 
HETATM   24  O21 DXT  3265      -4.632  34.186 233.920  1.00 20.00    -0.268 OA
HETATM   25  N21 DXT  3265      -3.785  32.746 235.352  1.00 20.00    -0.366 N 
ATOM     26 2H21 DXT  3265      -2.945  32.385 235.806  1.00  0.00     0.159 HD
ATOM     27 1H21 DXT  3265      -4.707  32.361 235.553  1.00  0.00     0.159 HD
ENDBRANCH   3  23
BRANCH   4  28
HETATM   28  O3  DXT  3265      -2.285  33.459 231.990  1.00 20.00    -0.362 OA
ATOM     29  H3  DXT  3265      -2.825  32.678 231.946  1.00  0.00     0.217 HD
ENDBRANCH   4  28
BRANCH  22  30
HETATM   30  O13 DXT  3265      -0.637  36.544 233.790  1.00 20.00    -0.373 OA
ATOM     31  H13 DXT  3265      -1.563  36.718 233.916  1.00  0.00     0.211 HD
ENDBRANCH  22  30
BRANCH   5  32
HETATM   32  N4  DXT  3265       0.269  34.069 231.512  1.00 20.00     0.091 N 
HETATM   33  C41 DXT  3265       0.737  32.843 230.743  1.00 20.00     0.310 C 
HETATM   34  C42 DXT  3265       1.380  35.083 231.296  1.00 20.00     0.310 C 
ENDBRANCH   5  32
BRANCH   7  35
HETATM   35  O5  DXT  3265       1.597  32.323 234.595  1.00 20.00    -0.394 OA
ATOM     36  H5  DXT  3265       0.927  31.658 234.489  1.00  0.00     0.210 HD
ENDBRANCH   7  35
BRANCH  15  37
HETATM   37  O10 DXT  3265       4.056  37.436 239.242  1.00 20.00    -0.360 OA
ATOM     38  H10 DXT  3265       3.301  37.943 239.513  1.00  0.00     0.217 HD
ENDBRANCH  15  37
TORSDOF 6
ENDMDL
MODEL 4
REMARK VINA RESULT:      -6.3      2.950      7.122
REMARK  6 active torsions:
REMARK  status: ('A' for Active; 'I' for Inactive)
REMARK    1  A    between atoms: C2_3  and  C21_5 
REMARK       I    between atoms: C21_5  and  N21_6 
REMARK    2  A    between atoms: C3_9  and  O3_10 
REMARK    3  A    between atoms: C4_12  and  N4_13 
REMARK    4  A    between atoms: C5_17  and  O5_18 
REMARK    5  A    between atoms: C10_27  and  O10_28 
REMARK    6  A    between atoms: C4B_36  and  O13_37 
ROOT
HETATM    1  C1  DXT  3265      -3.181  34.728 232.845  1.00 20.00     0.210 C 
HETATM    2  O1  DXT  3265      -3.424  34.586 234.089  1.00 20.00    -0.288 OA
HETATM    3  C2  DXT  3265      -4.026  34.335 231.785  1.00 20.00     0.112 C 
HETATM    4  C3  DXT  3265      -3.547  34.309 230.531  1.00 20.00     0.096 C 
HETATM    5  C4  DXT  3265      -2.056  34.386 230.185  1.00 20.00     0.289 C 
HETATM    6  C4A DXT  3265      -1.224  34.878 231.345  1.00 20.00     0.105 C 
HETATM    7  C5  DXT  3265      -0.455  33.738 232.009  1.00 20.00     0.138 C 
HETATM    8  C5A DXT  3265       0.495  34.123 233.113  1.00 20.00     0.064 C 
HETATM    9  C6  DXT  3265       0.957  32.997 234.017  1.00 20.00     0.027 C 
HETATM   10  C61 DXT  3265       1.449  31.804 233.226  1.00 20.00     0.016 C 
HETATM   11  C6A DXT  3265       1.975  33.578 234.922  1.00 20.00    -0.037 A 
HETATM   12  C7  DXT  3265       3.010  32.808 235.386  1.00 20.00     0.009 A 
HETATM   13  C8  DXT  3265       3.945  33.368 236.233  1.00 20.00     0.003 A 
HETATM   14  C9  DXT  3265       3.887  34.679 236.655  1.00 20.00     0.037 A 
HETATM   15  C10 DXT  3265       2.860  35.468 236.231  1.00 20.00     0.080 A 
HETATM   16  C6B DXT  3265       1.916  34.905 235.332  1.00 20.00     0.054 A 
HETATM   17  C11 DXT  3265       0.869  35.808 234.810  1.00 20.00     0.196 C 
HETATM   18  O11 DXT  3265       0.717  36.911 235.401  1.00 20.00    -0.287 OA
HETATM   19  C5B DXT  3265       0.070  35.372 233.830  1.00 20.00     0.050 C 
HETATM   20  C12 DXT  3265      -1.093  36.066 233.487  1.00 20.00     0.202 C 
HETATM   21  O12 DXT  3265      -1.383  37.176 234.044  1.00 20.00    -0.289 OA
HETATM   22  C4B DXT  3265      -2.026  35.586 232.407  1.00 20.00     0.196 C 
ENDROOT
BRANCH   3  23
HETATM   23  C21 DXT  3265      -5.220  33.603 232.071  1.00 20.00     0.255 C 
HETATM   24  O21 DXT  3265      -5.470  32.498 231.507  1.00 20.00    -0.268 OA
HETATM   25  N21 DXT  3265      -6.142  34.033 232.934  1.00 20.00    -0.366 N 
ATOM     26 2H21 DXT  3265      -5.940  34.924 233.389  1.00  0.00     0.159 HD
ATOM     27 1H21 DXT  3265      -6.994  33.511 233.138  1.00  0.00     0.159 HD
ENDBRANCH   3  23
BRANCH   4  28
HETATM   28  O3  DXT  3265      -4.294  34.130 229.452  1.00 20.00    -0.362 OA
ATOM     29  H3  DXT  3265      -3.950  33.902 228.596  1.00  0.00     0.217 HD
ENDBRANCH   4  28
BRANCH  22  30
HETATM   30  O13 DXT  3265      -2.608  36.793 231.806  1.00 20.00    -0.373 OA
ATOM     31  H13 DXT  3265      -2.869  36.555 230.924  1.00  0.00     0.211 HD
ENDBRANCH  22  30
BRANCH   5  32
HETATM   32  N4  DXT  3265      -1.891  35.116 228.838  1.00 20.00     0.091 N 
HETATM   33  C41 DXT  3265      -1.288  34.236 227.752  1.00 20.00     0.310 C 
HETATM   34  C42 DXT  3265      -1.034  36.371 228.810  1.00 20.00     0.310 C 
ENDBRANCH   5  32
BRANCH   7  35
HETATM   35  O5  DXT  3265       0.010  32.775 231.124  1.00 20.00    -0.394 OA
ATOM     36  H5  DXT  3265       0.891  32.470 231.309  1.00  0.00     0.210 HD
ENDBRANCH   7  35
BRANCH  15  37
HETATM   37  O10 DXT  3265       2.789  36.723 236.645  1.00 20.00    -0.360 OA
ATOM     38  H10 DXT  3265       1.982  37.111 236.960  1.00  0.00     0.217 HD
ENDBRANCH  15  37
TORSDOF 6
ENDMDL
MODEL 5
REMARK VINA RESULT:      -6.2      2.700      7.672
REMARK  6 active torsions:
REMARK  status: ('A' for Active; 'I' for Inactive)
REMARK    1  A    between atoms: C2_3  and  C21_5 
REMARK       I    between atoms: C21_5  and  N21_6 
REMARK    2  A    between atoms: C3_9  and  O3_10 
REMARK    3  A    between atoms: C4_12  and  N4_13 
REMARK    4  A    between atoms: C5_17  and  O5_18 
REMARK    5  A    between atoms: C10_27  and  O10_28 
REMARK    6  A    between atoms: C4B_36  and  O13_37 
ROOT
HETATM    1  C1  DXT  3265       1.128  33.526 234.482  1.00 20.00     0.210 C 
HETATM    2  O1  DXT  3265       2.240  32.928 234.301  1.00 20.00    -0.288 OA
HETATM    3  C2  DXT  3265       0.264  33.994 233.469  1.00 20.00     0.112 C 
HETATM    4  C3  DXT  3265      -0.742  34.824 233.789  1.00 20.00     0.096 C 
HETATM    5  C4  DXT  3265      -0.854  35.551 235.132  1.00 20.00     0.289 C 
HETATM    6  C4A DXT  3265       0.048  34.953 236.184  1.00 20.00     0.105 C 
HETATM    7  C5  DXT  3265       1.278  35.824 236.432  1.00 20.00     0.138 C 
HETATM    8  C5A DXT  3265       2.201  35.385 237.539  1.00 20.00     0.064 C 
HETATM    9  C6  DXT  3265       3.586  36.000 237.536  1.00 20.00     0.027 C 
HETATM   10  C61 DXT  3265       3.533  37.507 237.397  1.00 20.00     0.016 C 
HETATM   11  C6A DXT  3265       4.253  35.535 238.773  1.00 20.00    -0.037 A 
HETATM   12  C7  DXT  3265       5.175  36.330 239.405  1.00 20.00     0.009 A 
HETATM   13  C8  DXT  3265       5.790  35.875 240.553  1.00 20.00     0.003 A 
HETATM   14  C9  DXT  3265       5.531  34.637 241.104  1.00 20.00     0.037 A 
HETATM   15  C10 DXT  3265       4.637  33.811 240.492  1.00 20.00     0.080 A 
HETATM   16  C6B DXT  3265       3.978  34.291 239.329  1.00 20.00     0.054 A 
HETATM   17  C11 DXT  3265       2.940  33.418 238.740  1.00 20.00     0.196 C 
HETATM   18  O11 DXT  3265       2.913  32.219 239.130  1.00 20.00    -0.287 OA
HETATM   19  C5B DXT  3265       2.173  33.898 237.757  1.00 20.00     0.050 C 
HETATM   20  C12 DXT  3265       1.373  33.050 236.987  1.00 20.00     0.202 C 
HETATM   21  O12 DXT  3265       1.291  31.805 237.253  1.00 20.00    -0.289 OA
HETATM   22  C4B DXT  3265       0.519  33.558 235.857  1.00 20.00     0.196 C 
ENDROOT
BRANCH   3  23
HETATM   23  C21 DXT  3265       0.676  33.921 232.102  1.00 20.00     0.255 C 
HETATM   24  O21 DXT  3265       0.874  34.965 231.415  1.00 20.00    -0.268 OA
HETATM   25  N21 DXT  3265       0.871  32.765 231.467  1.00 20.00    -0.366 N 
ATOM     26 2H21 DXT  3265       0.711  31.923 232.021  1.00  0.00     0.159 HD
ATOM     27 1H21 DXT  3265       1.165  32.713 230.491  1.00  0.00     0.159 HD
ENDBRANCH   3  23
BRANCH   4  28
HETATM   28  O3  DXT  3265      -1.709  35.177 232.956  1.00 20.00    -0.362 OA
ATOM     29  H3  DXT  3265      -2.543  35.543 233.228  1.00  0.00     0.217 HD
ENDBRANCH   4  28
BRANCH  22  30
HETATM   30  O13 DXT  3265      -0.660  32.683 235.811  1.00 20.00    -0.373 OA
ATOM     31  H13 DXT  3265      -0.407  31.917 235.308  1.00  0.00     0.211 HD
ENDBRANCH  22  30
BRANCH   5  32
HETATM   32  N4  DXT  3265      -2.344  35.716 235.491  1.00 20.00     0.091 N 
HETATM   33  C41 DXT  3265      -2.579  35.941 236.978  1.00 20.00     0.310 C 
HETATM   34  C42 DXT  3265      -3.289  34.579 235.140  1.00 20.00     0.310 C 
ENDBRANCH   5  32
BRANCH   7  35
HETATM   35  O5  DXT  3265       1.032  37.188 236.361  1.00 20.00    -0.394 OA
ATOM     36  H5  DXT  3265       0.110  37.418 236.384  1.00  0.00     0.210 HD
ENDBRANCH   7  35
BRANCH  15  37
HETATM   37  O10 DXT  3265       4.395  32.616 241.005  1.00 20.00    -0.360 OA
ATOM     38  H10 DXT  3265       3.577  32.401 241.437  1.00  0.00     0.217 HD
ENDBRANCH  15  37
TORSDOF 6
ENDMDL
MODEL 6
REMARK VINA RESULT:      -6.1      3.082      7.308
REMARK  6 active torsions:
REMARK  status: ('A' for Active; 'I' for Inactive)
REMARK    1  A    between atoms: C2_3  and  C21_5 
REMARK       I    between atoms: C21_5  and  N21_6 
REMARK    2  A    between atoms: C3_9  and  O3_10 
REMARK    3  A    between atoms: C4_12  and  N4_13 
REMARK    4  A    between atoms: C5_17  and  O5_18 
REMARK    5  A    between atoms: C10_27  and  O10_28 
REMARK    6  A    between atoms: C4B_36  and  O13_37 
ROOT
HETATM    1  C1  DXT  3265       1.076  31.790 233.984  1.00 20.00     0.210 C 
HETATM    2  O1  DXT  3265       2.335  31.589 233.946  1.00 20.00    -0.288 OA
HETATM    3  C2  DXT  3265       0.170  31.580 232.923  1.00 20.00     0.112 C 
HETATM    4  C3  DXT  3265      -1.078  32.067 233.012  1.00 20.00     0.096 C 
HETATM    5  C4  DXT  3265      -1.519  33.101 234.052  1.00 20.00     0.289 C 
HETATM    6  C4A DXT  3265      -0.535  33.223 235.191  1.00 20.00     0.105 C 
HETATM    7  C5  DXT  3265       0.302  34.495 235.077  1.00 20.00     0.138 C 
HETATM    8  C5A DXT  3265       1.247  34.781 236.215  1.00 20.00     0.064 C 
HETATM    9  C6  DXT  3265       2.334  35.802 235.938  1.00 20.00     0.027 C 
HETATM   10  C61 DXT  3265       1.775  37.067 235.323  1.00 20.00     0.016 C 
HETATM   11  C6A DXT  3265       3.040  36.019 237.222  1.00 20.00    -0.037 A 
HETATM   12  C7  DXT  3265       3.590  37.241 237.512  1.00 20.00     0.009 A 
HETATM   13  C8  DXT  3265       4.249  37.421 238.711  1.00 20.00     0.003 A 
HETATM   14  C9  DXT  3265       4.397  36.417 239.645  1.00 20.00     0.037 A 
HETATM   15  C10 DXT  3265       3.882  35.183 239.382  1.00 20.00     0.080 A 
HETATM   16  C6B DXT  3265       3.173  35.006 238.163  1.00 20.00     0.054 A 
HETATM   17  C11 DXT  3265       2.539  33.688 237.945  1.00 20.00     0.196 C 
HETATM   18  O11 DXT  3265       2.901  32.746 238.702  1.00 20.00    -0.287 OA
HETATM   19  C5B DXT  3265       1.717  33.531 236.902  1.00 20.00     0.050 C 
HETATM   20  C12 DXT  3265       1.309  32.260 236.492  1.00 20.00     0.202 C 
HETATM   21  O12 DXT  3265       1.643  31.219 237.150  1.00 20.00    -0.289 OA
HETATM   22  C4B DXT  3265       0.406  32.050 235.306  1.00 20.00     0.196 C 
ENDROOT
BRANCH   3  23
HETATM   23  C21 DXT  3265       0.668  31.219 231.633  1.00 20.00     0.255 C 
HETATM   24  O21 DXT  3265       1.178  30.082 231.414  1.00 20.00    -0.268 OA
HETATM   25  N21 DXT  3265       0.637  32.049 230.589  1.00 20.00    -0.366 N 
ATOM     26 2H21 DXT  3265       0.226  32.966 230.765  1.00  0.00     0.159 HD
ATOM     27 1H21 DXT  3265       0.992  31.791 229.668  1.00  0.00     0.159 HD
ENDBRANCH   3  23
BRANCH   4  28
HETATM   28  O3  DXT  3265      -2.053  31.777 232.163  1.00 20.00    -0.362 OA
ATOM     29  H3  DXT  3265      -2.354  30.896 231.975  1.00  0.00     0.217 HD
ENDBRANCH   4  28
BRANCH  22  30
HETATM   30  O13 DXT  3265      -0.394  30.856 235.609  1.00 20.00    -0.373 OA
ATOM     31  H13 DXT  3265      -1.253  31.167 235.870  1.00  0.00     0.211 HD
ENDBRANCH  22  30
BRANCH   5  32
HETATM   32  N4  DXT  3265      -2.994  32.847 234.419  1.00 20.00     0.091 N 
HETATM   33  C41 DXT  3265      -3.886  34.056 234.179  1.00 20.00     0.310 C 
HETATM   34  C42 DXT  3265      -3.311  32.436 235.848  1.00 20.00     0.310 C 
ENDBRANCH   5  32
BRANCH   7  35
HETATM   35  O5  DXT  3265      -0.393  35.590 234.583  1.00 20.00    -0.394 OA
ATOM     36  H5  DXT  3265      -1.285  35.397 234.319  1.00  0.00     0.210 HD
ENDBRANCH   7  35
BRANCH  15  37
HETATM   37  O10 DXT  3265       4.034  34.211 240.265  1.00 20.00    -0.360 OA
ATOM     38  H10 DXT  3265       4.849  33.735 240.366  1.00  0.00     0.217 HD
ENDBRANCH  15  37
TORSDOF 6
ENDMDL
MODEL 7
REMARK VINA RESULT:      -6.0      4.259      7.286
REMARK  6 active torsions:
REMARK  status: ('A' for Active; 'I' for Inactive)
REMARK    1  A    between atoms: C2_3  and  C21_5 
REMARK       I    between atoms: C21_5  and  N21_6 
REMARK    2  A    between atoms: C3_9  and  O3_10 
REMARK    3  A    between atoms: C4_12  and  N4_13 
REMARK    4  A    between atoms: C5_17  and  O5_18 
REMARK    5  A    between atoms: C10_27  and  O10_28 
REMARK    6  A    between atoms: C4B_36  and  O13_37 
ROOT
HETATM    1  C1  DXT  3265      -1.970  35.974 230.872  1.00 20.00     0.210 C 
HETATM    2  O1  DXT  3265      -2.959  36.632 231.337  1.00 20.00    -0.288 OA
HETATM    3  C2  DXT  3265      -0.885  35.470 231.619  1.00 20.00     0.112 C 
HETATM    4  C3  DXT  3265       0.207  35.020 230.979  1.00 20.00     0.096 C 
HETATM    5  C4  DXT  3265       0.499  35.285 229.499  1.00 20.00     0.289 C 
HETATM    6  C4A DXT  3265      -0.724  35.757 228.750  1.00 20.00     0.105 C 
HETATM    7  C5  DXT  3265      -0.668  37.257 228.470  1.00 20.00     0.138 C 
HETATM    8  C5A DXT  3265      -1.784  37.826 227.633  1.00 20.00     0.064 C 
HETATM    9  C6  DXT  3265      -1.948  39.333 227.676  1.00 20.00     0.027 C 
HETATM   10  C61 DXT  3265      -0.635  40.050 227.445  1.00 20.00     0.016 C 
HETATM   11  C6A DXT  3265      -2.996  39.668 226.685  1.00 20.00    -0.037 A 
HETATM   12  C7  DXT  3265      -2.959  40.862 226.013  1.00 20.00     0.009 A 
HETATM   13  C8  DXT  3265      -3.948  41.157 225.098  1.00 20.00     0.003 A 
HETATM   14  C9  DXT  3265      -4.999  40.306 224.827  1.00 20.00     0.037 A 
HETATM   15  C10 DXT  3265      -5.081  39.120 225.492  1.00 20.00     0.080 A 
HETATM   16  C6B DXT  3265      -4.045  38.799 226.408  1.00 20.00     0.054 A 
HETATM   17  C11 DXT  3265      -4.104  37.464 227.043  1.00 20.00     0.196 C 
HETATM   18  O11 DXT  3265      -5.191  36.833 226.949  1.00 20.00    -0.287 OA
HETATM   19  C5B DXT  3265      -3.063  37.050 227.772  1.00 20.00     0.050 C 
HETATM   20  C12 DXT  3265      -3.167  35.934 228.606  1.00 20.00     0.202 C 
HETATM   21  O12 DXT  3265      -4.232  35.233 228.635  1.00 20.00    -0.289 OA
HETATM   22  C4B DXT  3265      -2.021  35.459 229.459  1.00 20.00     0.196 C 
ENDROOT
BRANCH   3  23
HETATM   23  C21 DXT  3265      -0.773  35.795 233.006  1.00 20.00     0.255 C 
HETATM   24  O21 DXT  3265      -0.291  34.976 233.841  1.00 20.00    -0.268 OA
HETATM   25  N21 DXT  3265      -1.172  36.964 233.509  1.00 20.00    -0.366 N 
ATOM     26 2H21 DXT  3265      -1.562  37.625 232.836  1.00  0.00     0.159 HD
ATOM     27 1H21 DXT  3265      -1.093  37.196 234.499  1.00  0.00     0.159 HD
ENDBRANCH   3  23
BRANCH   4  28
HETATM   28  O3  DXT  3265       1.199  34.368 231.567  1.00 20.00    -0.362 OA
ATOM     29  H3  DXT  3265       1.397  33.451 231.420  1.00  0.00     0.217 HD
ENDBRANCH   4  28
BRANCH  22  30
HETATM   30  O13 DXT  3265      -2.160  34.000 229.553  1.00 20.00    -0.373 OA
ATOM     31  H13 DXT  3265      -3.014  33.787 229.197  1.00  0.00     0.211 HD
ENDBRANCH  22  30
BRANCH   5  32
HETATM   32  N4  DXT  3265       1.264  34.082 228.915  1.00 20.00     0.091 N 
HETATM   33  C41 DXT  3265       2.283  34.478 227.856  1.00 20.00     0.310 C 
HETATM   34  C42 DXT  3265       0.455  32.980 228.250  1.00 20.00     0.310 C 
ENDBRANCH   5  32
BRANCH   7  35
HETATM   35  O5  DXT  3265       0.603  37.735 228.182  1.00 20.00    -0.394 OA
ATOM     36  H5  DXT  3265       1.210  37.687 228.911  1.00  0.00     0.210 HD
ENDBRANCH   7  35
BRANCH  15  37
HETATM   37  O10 DXT  3265      -6.095  38.305 225.249  1.00 20.00    -0.360 OA
ATOM     38  H10 DXT  3265      -6.384  37.649 225.872  1.00  0.00     0.217 HD
ENDBRANCH  15  37
TORSDOF 6
ENDMDL
MODEL 8
REMARK VINA RESULT:      -5.9      2.025      2.775
REMARK  6 active torsions:
REMARK  status: ('A' for Active; 'I' for Inactive)
REMARK    1  A    between atoms: C2_3  and  C21_5 
REMARK       I    between atoms: C21_5  and  N21_6 
REMARK    2  A    between atoms: C3_9  and  O3_10 
REMARK    3  A    between atoms: C4_12  and  N4_13 
REMARK    4  A    between atoms: C5_17  and  O5_18 
REMARK    5  A    between atoms: C10_27  and  O10_28 
REMARK    6  A    between atoms: C4B_36  and  O13_37 
ROOT
HETATM    1  C1  DXT  3265       1.636  35.139 237.141  1.00 20.00     0.210 C 
HETATM    2  O1  DXT  3265       1.179  36.312 236.939  1.00 20.00    -0.288 OA
HETATM    3  C2  DXT  3265       2.903  34.823 237.675  1.00 20.00     0.112 C 
HETATM    4  C3  DXT  3265       3.358  33.562 237.600  1.00 20.00     0.096 C 
HETATM    5  C4  DXT  3265       2.737  32.482 236.708  1.00 20.00     0.289 C 
HETATM    6  C4A DXT  3265       1.355  32.860 236.230  1.00 20.00     0.105 C 
HETATM    7  C5  DXT  3265       1.366  33.295 234.766  1.00 20.00     0.138 C 
HETATM    8  C5A DXT  3265       0.027  33.594 234.144  1.00 20.00     0.064 C 
HETATM    9  C6  DXT  3265       0.055  34.382 232.849  1.00 20.00     0.027 C 
HETATM   10  C61 DXT  3265       1.032  33.795 231.853  1.00 20.00     0.016 C 
HETATM   11  C6A DXT  3265      -1.343  34.431 232.361  1.00 20.00    -0.037 A 
HETATM   12  C7  DXT  3265      -1.606  34.469 231.016  1.00 20.00     0.009 A 
HETATM   13  C8  DXT  3265      -2.915  34.521 230.582  1.00 20.00     0.003 A 
HETATM   14  C9  DXT  3265      -3.992  34.551 231.443  1.00 20.00     0.037 A 
HETATM   15  C10 DXT  3265      -3.768  34.537 232.787  1.00 20.00     0.080 A 
HETATM   16  C6B DXT  3265      -2.423  34.448 233.235  1.00 20.00     0.054 A 
HETATM   17  C11 DXT  3265      -2.211  34.334 234.694  1.00 20.00     0.196 C 
HETATM   18  O11 DXT  3265      -3.193  34.605 235.438  1.00 20.00    -0.287 OA
HETATM   19  C5B DXT  3265      -0.982  34.071 235.150  1.00 20.00     0.050 C 
HETATM   20  C12 DXT  3265      -0.669  34.219 236.504  1.00 20.00     0.202 C 
HETATM   21  O12 DXT  3265      -1.566  34.532 237.354  1.00 20.00    -0.289 OA
HETATM   22  C4B DXT  3265       0.712  33.955 237.042  1.00 20.00     0.196 C 
ENDROOT
BRANCH   3  23
HETATM   23  C21 DXT  3265       3.844  35.871 237.922  1.00 20.00     0.255 C 
HETATM   24  O21 DXT  3265       4.358  36.042 239.065  1.00 20.00    -0.268 OA
HETATM   25  N21 DXT  3265       4.232  36.730 236.979  1.00 20.00    -0.366 N 
ATOM     26 2H21 DXT  3265       3.818  36.592 236.056  1.00  0.00     0.159 HD
ATOM     27 1H21 DXT  3265       4.904  37.477 237.155  1.00  0.00     0.159 HD
ENDBRANCH   3  23
BRANCH   4  28
HETATM   28  O3  DXT  3265       4.443  33.123 238.221  1.00 20.00    -0.362 OA
ATOM     29  H3  DXT  3265       4.524  32.260 238.610  1.00  0.00     0.217 HD
ENDBRANCH   4  28
BRANCH  22  30
HETATM   30  O13 DXT  3265       0.527  33.455 238.410  1.00 20.00    -0.373 OA
ATOM     31  H13 DXT  3265       1.321  32.984 238.634  1.00  0.00     0.211 HD
ENDBRANCH  22  30
BRANCH   5  32
HETATM   32  N4  DXT  3265       2.896  31.111 237.394  1.00 20.00     0.091 N 
HETATM   33  C41 DXT  3265       3.745  30.137 236.592  1.00 20.00     0.310 C 
HETATM   34  C42 DXT  3265       1.635  30.324 237.710  1.00 20.00     0.310 C 
ENDBRANCH   5  32
BRANCH   7  35
HETATM   35  O5  DXT  3265       2.254  32.587 233.969  1.00 20.00    -0.394 OA
ATOM     36  H5  DXT  3265       2.529  31.755 234.338  1.00  0.00     0.210 HD
ENDBRANCH   7  35
BRANCH  15  37
HETATM   37  O10 DXT  3265      -4.794  34.581 233.620  1.00 20.00    -0.360 OA
ATOM     38  H10 DXT  3265      -5.667  34.304 233.369  1.00  0.00     0.217 HD
ENDBRANCH  15  37
TORSDOF 6
ENDMDL
MODEL 9
REMARK VINA RESULT:      -5.9      4.682      7.475
REMARK  6 active torsions:
REMARK  status: ('A' for Active; 'I' for Inactive)
REMARK    1  A    between atoms: C2_3  and  C21_5 
REMARK       I    between atoms: C21_5  and  N21_6 
REMARK    2  A    between atoms: C3_9  and  O3_10 
REMARK    3  A    between atoms: C4_12  and  N4_13 
REMARK    4  A    between atoms: C5_17  and  O5_18 
REMARK    5  A    between atoms: C10_27  and  O10_28 
REMARK    6  A    between atoms: C4B_36  and  O13_37 
ROOT
HETATM    1  C1  DXT  3265      -0.640  34.035 228.558  1.00 20.00     0.210 C 
HETATM    2  O1  DXT  3265      -0.577  34.045 227.284  1.00 20.00    -0.288 OA
HETATM    3  C2  DXT  3265      -1.188  33.006 229.353  1.00 20.00     0.112 C 
HETATM    4  C3  DXT  3265      -1.421  33.228 230.657  1.00 20.00     0.096 C 
HETATM    5  C4  DXT  3265      -1.419  34.619 231.299  1.00 20.00     0.289 C 
HETATM    6  C4A DXT  3265      -0.756  35.654 230.420  1.00 20.00     0.105 C 
HETATM    7  C5  DXT  3265      -1.783  36.562 229.748  1.00 20.00     0.138 C 
HETATM    8  C5A DXT  3265      -1.237  37.703 228.930  1.00 20.00     0.064 C 
HETATM    9  C6  DXT  3265      -2.208  38.357 227.967  1.00 20.00     0.027 C 
HETATM   10  C61 DXT  3265      -3.519  38.708 228.638  1.00 20.00     0.016 C 
HETATM   11  C6A DXT  3265      -1.501  39.522 227.387  1.00 20.00    -0.037 A 
HETATM   12  C7  DXT  3265      -2.198  40.644 227.019  1.00 20.00     0.009 A 
HETATM   13  C8  DXT  3265      -1.521  41.715 226.475  1.00 20.00     0.003 A 
HETATM   14  C9  DXT  3265      -0.158  41.715 226.265  1.00 20.00     0.037 A 
HETATM   15  C10 DXT  3265       0.565  40.609 226.598  1.00 20.00     0.080 A 
HETATM   16  C6B DXT  3265      -0.125  39.518 227.190  1.00 20.00     0.054 A 
HETATM   17  C11 DXT  3265       0.695  38.370 227.633  1.00 20.00     0.196 C 
HETATM   18  O11 DXT  3265       1.880  38.315 227.207  1.00 20.00    -0.287 OA
HETATM   19  C5B DXT  3265       0.117  37.403 228.352  1.00 20.00     0.050 C 
HETATM   20  C12 DXT  3265       0.760  36.180 228.565  1.00 20.00     0.202 C 
HETATM   21  O12 DXT  3265       1.948  35.983 228.146  1.00 20.00    -0.289 OA
HETATM   22  C4B DXT  3265       0.123  35.063 229.347  1.00 20.00     0.196 C 
ENDROOT
BRANCH   3  23
HETATM   23  C21 DXT  3265      -1.850  31.906 228.723  1.00 20.00     0.255 C 
HETATM   24  O21 DXT  3265      -1.545  30.708 228.992  1.00 20.00    -0.268 OA
HETATM   25  N21 DXT  3265      -2.816  32.068 227.817  1.00 20.00    -0.366 N 
ATOM     26 2H21 DXT  3265      -3.062  33.034 227.600  1.00  0.00     0.159 HD
ATOM     27 1H21 DXT  3265      -3.288  31.283 227.367  1.00  0.00     0.159 HD
ENDBRANCH   3  23
BRANCH   4  28
HETATM   28  O3  DXT  3265      -1.763  32.287 231.523  1.00 20.00    -0.362 OA
ATOM     29  H3  DXT  3265      -1.735  32.394 232.467  1.00  0.00     0.217 HD
ENDBRANCH   4  28
BRANCH  22  30
HETATM   30  O13 DXT  3265       1.224  34.349 230.007  1.00 20.00    -0.373 OA
ATOM     31  H13 DXT  3265       1.942  34.326 229.385  1.00  0.00     0.211 HD
ENDBRANCH  22  30
BRANCH   5  32
HETATM   32  N4  DXT  3265      -0.917  34.501 232.751  1.00 20.00     0.091 N 
HETATM   33  C41 DXT  3265      -1.966  34.898 233.779  1.00 20.00     0.310 C 
HETATM   34  C42 DXT  3265       0.308  35.308 233.148  1.00 20.00     0.310 C 
ENDBRANCH   5  32
BRANCH   7  35
HETATM   35  O5  DXT  3265      -2.881  36.863 230.541  1.00 20.00    -0.394 OA
ATOM     36  H5  DXT  3265      -3.564  37.348 230.092  1.00  0.00     0.210 HD
ENDBRANCH   7  35
BRANCH  15  37
HETATM   37  O10 DXT  3265       1.870  40.594 226.385  1.00 20.00    -0.360 OA
ATOM     38  H10 DXT  3265       2.491  40.988 226.987  1.00  0.00     0.217 HD
ENDBRANCH  15  37
TORSDOF 6
ENDMDL
