MODEL 1
REMARK VINA RESULT:      -6.4      0.000      0.000
REMARK  4 active torsions:
REMARK  status: ('A' for Active; 'I' for Inactive)
REMARK    1  A    between atoms: C1_2  and  O2_3 
REMARK    2  A    between atoms: C1_2  and  C2_4 
REMARK    3  A    between atoms: C7_9  and  N1_10 
REMARK    4  A    between atoms: N1_10  and  C8_11 
ROOT
ATOM      1  C2  UNK     1      -2.714  39.450 227.243  1.00  0.00     0.064 A 
ATOM      2  C3  UNK     1      -3.557  39.299 226.136  1.00  0.00     0.020 A 
ATOM      3  C4  UNK     1      -3.435  40.135 225.029  1.00  0.00     0.001 A 
ATOM      4  C5  UNK     1      -2.474  41.143 224.999  1.00  0.00     0.002 A 
ATOM      5  C6  UNK     1      -1.607  41.344 226.080  1.00  0.00     0.030 A 
ATOM      6  C7  UNK     1      -1.681  40.555 227.248  1.00  0.00     0.049 A 
ENDROOT
BRANCH   6   7
ATOM      7  N1  UNK     1      -0.880  40.670 228.377  1.00  0.00    -0.355 N 
ATOM      8  H6  UNK     1      -1.282  40.871 229.270  1.00  0.00     0.166 HD
BRANCH   7   9
ATOM      9  C8  UNK     1       0.463  40.503 228.243  1.00  0.00     0.039 A 
ATOM     10  C9  UNK     1       1.449  41.528 228.728  1.00  0.00    -0.029 A 
ATOM     11  C10 UNK     1       1.041  42.657 229.650  1.00  0.00     0.051 C 
ATOM     12  C14 UNK     1       2.873  41.390 228.298  1.00  0.00    -0.054 A 
ATOM     13  C13 UNK     1       3.233  40.343 227.450  1.00  0.00     0.007 A 
ATOM     14  C15 UNK     1       3.926  42.358 228.770  1.00  0.00     0.049 C 
ATOM     15  C12 UNK     1       2.278  39.431 226.996  1.00  0.00     0.003 A 
ATOM     16  C11 UNK     1       0.927  39.517 227.365  1.00  0.00     0.030 A 
ENDBRANCH   7   9
ENDBRANCH   6   7
BRANCH   1  17
ATOM     17  C1  UNK     1      -2.892  38.521 228.438  1.00  0.00     0.178 C 
ATOM     18  O1  UNK     1      -1.902  37.875 228.865  1.00  0.00    -0.646 OA
BRANCH  17  19
ATOM     19  O2  UNK     1      -4.023  38.380 228.977  1.00  0.00    -0.773 OA
ATOM     20  H1  UNK     1      -3.924  38.369 229.922  1.00  0.00     0.167 HD
ENDBRANCH  17  19
ENDBRANCH   1  17
TORSDOF 4
ENDMDL
MODEL 2
REMARK VINA RESULT:      -6.3     11.331     12.387
REMARK  4 active torsions:
REMARK  status: ('A' for Active; 'I' for Inactive)
REMARK    1  A    between atoms: C1_2  and  O2_3 
REMARK    2  A    between atoms: C1_2  and  C2_4 
REMARK    3  A    between atoms: C7_9  and  N1_10 
REMARK    4  A    between atoms: N1_10  and  C8_11 
ROOT
ATOM      1  C2  UNK     1       2.545  36.899 237.274  1.00  0.00     0.064 A 
ATOM      2  C3  UNK     1       1.371  37.648 237.414  1.00  0.00     0.020 A 
ATOM      3  C4  UNK     1       0.183  37.228 236.820  1.00  0.00     0.001 A 
ATOM      4  C5  UNK     1       0.138  36.055 236.070  1.00  0.00     0.002 A 
ATOM      5  C6  UNK     1       1.282  35.269 235.891  1.00  0.00     0.030 A 
ATOM      6  C7  UNK     1       2.530  35.637 236.441  1.00  0.00     0.049 A 
ENDROOT
BRANCH   6   7
ATOM      7  N1  UNK     1       3.724  34.940 236.323  1.00  0.00    -0.355 N 
ATOM      8  H6  UNK     1       4.565  35.409 236.053  1.00  0.00     0.166 HD
BRANCH   7   9
ATOM      9  C8  UNK     1       3.729  33.604 236.583  1.00  0.00     0.039 A 
ATOM     10  C9  UNK     1       4.115  33.052 237.926  1.00  0.00    -0.029 A 
ATOM     11  C10 UNK     1       4.236  33.934 239.150  1.00  0.00     0.051 C 
ATOM     12  C14 UNK     1       4.352  31.582 238.036  1.00  0.00    -0.054 A 
ATOM     13  C13 UNK     1       4.234  30.782 236.900  1.00  0.00     0.007 A 
ATOM     14  C15 UNK     1       4.710  30.947 239.356  1.00  0.00     0.049 C 
ATOM     15  C12 UNK     1       3.906  31.341 235.664  1.00  0.00     0.003 A 
ATOM     16  C11 UNK     1       3.677  32.716 235.503  1.00  0.00     0.030 A 
ENDBRANCH   7   9
ENDBRANCH   6   7
BRANCH   1  17
ATOM     17  C1  UNK     1       3.824  37.404 237.931  1.00  0.00     0.178 C 
ATOM     18  O1  UNK     1       3.896  37.442 239.186  1.00  0.00    -0.646 OA
BRANCH  17  19
ATOM     19  O2  UNK     1       4.791  37.804 237.228  1.00  0.00    -0.773 OA
ATOM     20  H1  UNK     1       5.505  37.180 237.287  1.00  0.00     0.167 HD
ENDBRANCH  17  19
ENDBRANCH   1  17
TORSDOF 4
ENDMDL
MODEL 3
REMARK VINA RESULT:      -6.1      9.753     11.461
REMARK  4 active torsions:
REMARK  status: ('A' for Active; 'I' for Inactive)
REMARK    1  A    between atoms: C1_2  and  O2_3 
REMARK    2  A    between atoms: C1_2  and  C2_4 
REMARK    3  A    between atoms: C7_9  and  N1_10 
REMARK    4  A    between atoms: N1_10  and  C8_11 
ROOT
ATOM      1  C2  UNK     1       4.006  35.563 237.545  1.00  0.00     0.064 A 
ATOM      2  C3  UNK     1       4.358  34.476 238.353  1.00  0.00     0.020 A 
ATOM      3  C4  UNK     1       4.117  33.170 237.933  1.00  0.00     0.001 A 
ATOM      4  C5  UNK     1       3.518  32.916 236.702  1.00  0.00     0.002 A 
ATOM      5  C6  UNK     1       3.139  33.965 235.855  1.00  0.00     0.030 A 
ATOM      6  C7  UNK     1       3.327  35.316 236.217  1.00  0.00     0.049 A 
ENDROOT
BRANCH   6   7
ATOM      7  N1  UNK     1       2.986  36.430 235.462  1.00  0.00    -0.355 N 
ATOM      8  H6  UNK     1       3.679  37.103 235.201  1.00  0.00     0.166 HD
BRANCH   7   9
ATOM      9  C8  UNK     1       1.689  36.589 235.083  1.00  0.00     0.039 A 
ATOM     10  C9  UNK     1       0.623  37.035 236.044  1.00  0.00    -0.029 A 
ATOM     11  C10 UNK     1       0.961  37.616 237.400  1.00  0.00     0.051 C 
ATOM     12  C14 UNK     1      -0.802  36.918 235.613  1.00  0.00    -0.054 A 
ATOM     13  C13 UNK     1      -1.097  36.383 234.360  1.00  0.00     0.007 A 
ATOM     14  C15 UNK     1      -1.926  37.375 236.508  1.00  0.00     0.049 C 
ATOM     15  C12 UNK     1      -0.077  35.950 233.510  1.00  0.00     0.003 A 
ATOM     16  C11 UNK     1       1.278  36.032 233.867  1.00  0.00     0.030 A 
ENDBRANCH   7   9
ENDBRANCH   6   7
BRANCH   1  17
ATOM     17  C1  UNK     1       4.276  36.976 238.051  1.00  0.00     0.178 C 
ATOM     18  O1  UNK     1       3.967  37.273 239.233  1.00  0.00    -0.646 OA
BRANCH  17  19
ATOM     19  O2  UNK     1       4.779  37.844 237.289  1.00  0.00    -0.773 OA
ATOM     20  H1  UNK     1       5.564  37.494 236.884  1.00  0.00     0.167 HD
ENDBRANCH  17  19
ENDBRANCH   1  17
TORSDOF 4
ENDMDL
MODEL 4
REMARK VINA RESULT:      -6.1      9.733     11.027
REMARK  4 active torsions:
REMARK  status: ('A' for Active; 'I' for Inactive)
REMARK    1  A    between atoms: C1_2  and  O2_3 
REMARK    2  A    between atoms: C1_2  and  C2_4 
REMARK    3  A    between atoms: C7_9  and  N1_10 
REMARK    4  A    between atoms: N1_10  and  C8_11 
ROOT
ATOM      1  C2  UNK     1       1.701  37.041 236.811  1.00  0.00     0.064 A 
ATOM      2  C3  UNK     1       0.732  37.852 237.413  1.00  0.00     0.020 A 
ATOM      3  C4  UNK     1      -0.571  37.887 236.922  1.00  0.00     0.001 A 
ATOM      4  C5  UNK     1      -0.938  37.120 235.819  1.00  0.00     0.002 A 
ATOM      5  C6  UNK     1      -0.009  36.294 235.174  1.00  0.00     0.030 A 
ATOM      6  C7  UNK     1       1.336  36.219 235.595  1.00  0.00     0.049 A 
ENDROOT
BRANCH   6   7
ATOM      7  N1  UNK     1       2.339  35.444 235.029  1.00  0.00    -0.355 N 
ATOM      8  H6  UNK     1       3.205  35.856 234.746  1.00  0.00     0.166 HD
BRANCH   7   9
ATOM      9  C8  UNK     1       2.120  34.111 234.867  1.00  0.00     0.039 A 
ATOM     10  C9  UNK     1       2.944  33.073 235.576  1.00  0.00    -0.029 A 
ATOM     11  C10 UNK     1       3.861  33.427 236.726  1.00  0.00     0.051 C 
ATOM     12  C14 UNK     1       2.813  31.653 235.132  1.00  0.00    -0.054 A 
ATOM     13  C13 UNK     1       1.961  31.342 234.073  1.00  0.00     0.007 A 
ATOM     14  C15 UNK     1       3.581  30.550 235.815  1.00  0.00     0.049 C 
ATOM     15  C12 UNK     1       1.238  32.343 233.421  1.00  0.00     0.003 A 
ATOM     16  C11 UNK     1       1.327  33.692 233.793  1.00  0.00     0.030 A 
ENDBRANCH   7   9
ENDBRANCH   6   7
BRANCH   1  17
ATOM     17  C1  UNK     1       3.118  37.044 237.375  1.00  0.00     0.178 C 
ATOM     18  O1  UNK     1       3.283  37.117 238.619  1.00  0.00    -0.646 OA
BRANCH  17  19
ATOM     19  O2  UNK     1       4.114  37.001 236.604  1.00  0.00    -0.773 OA
ATOM     20  H1  UNK     1       4.325  36.095 236.409  1.00  0.00     0.167 HD
ENDBRANCH  17  19
ENDBRANCH   1  17
TORSDOF 4
ENDMDL
MODEL 5
REMARK VINA RESULT:      -6.0     10.435     12.160
REMARK  4 active torsions:
REMARK  status: ('A' for Active; 'I' for Inactive)
REMARK    1  A    between atoms: C1_2  and  O2_3 
REMARK    2  A    between atoms: C1_2  and  C2_4 
REMARK    3  A    between atoms: C7_9  and  N1_10 
REMARK    4  A    between atoms: N1_10  and  C8_11 
ROOT
ATOM      1  C2  UNK     1       4.094  34.885 238.260  1.00  0.00     0.064 A 
ATOM      2  C3  UNK     1       4.495  33.688 238.863  1.00  0.00     0.020 A 
ATOM      3  C4  UNK     1       4.445  32.486 238.161  1.00  0.00     0.001 A 
ATOM      4  C5  UNK     1       3.993  32.448 236.845  1.00  0.00     0.002 A 
ATOM      5  C6  UNK     1       3.575  33.614 236.192  1.00  0.00     0.030 A 
ATOM      6  C7  UNK     1       3.572  34.868 236.842  1.00  0.00     0.049 A 
ENDROOT
BRANCH   6   7
ATOM      7  N1  UNK     1       3.174  36.081 236.296  1.00  0.00    -0.355 N 
ATOM      8  H6  UNK     1       3.842  36.696 235.877  1.00  0.00     0.166 HD
BRANCH   7   9
ATOM      9  C8  UNK     1       1.857  36.417 236.343  1.00  0.00     0.039 A 
ATOM     10  C9  UNK     1       0.903  36.074 235.233  1.00  0.00    -0.029 A 
ATOM     11  C10 UNK     1       1.266  35.089 234.143  1.00  0.00     0.051 C 
ATOM     12  C14 UNK     1      -0.446  36.714 235.247  1.00  0.00    -0.054 A 
ATOM     13  C13 UNK     1      -0.766  37.617 236.260  1.00  0.00     0.007 A 
ATOM     14  C15 UNK     1      -1.469  36.395 234.187  1.00  0.00     0.049 C 
ATOM     15  C12 UNK     1       0.163  37.933 237.254  1.00  0.00     0.003 A 
ATOM     16  C11 UNK     1       1.445  37.365 237.287  1.00  0.00     0.030 A 
ENDBRANCH   7   9
ENDBRANCH   6   7
BRANCH   1  17
ATOM     17  C1  UNK     1       4.152  36.175 239.072  1.00  0.00     0.178 C 
ATOM     18  O1  UNK     1       4.784  37.160 238.612  1.00  0.00    -0.646 OA
BRANCH  17  19
ATOM     19  O2  UNK     1       3.597  36.247 240.201  1.00  0.00    -0.773 OA
ATOM     20  H1  UNK     1       4.097  36.827 240.764  1.00  0.00     0.167 HD
ENDBRANCH  17  19
ENDBRANCH   1  17
TORSDOF 4
ENDMDL
MODEL 6
REMARK VINA RESULT:      -6.0      8.242     10.051
REMARK  4 active torsions:
REMARK  status: ('A' for Active; 'I' for Inactive)
REMARK    1  A    between atoms: C1_2  and  O2_3 
REMARK    2  A    between atoms: C1_2  and  C2_4 
REMARK    3  A    between atoms: C7_9  and  N1_10 
REMARK    4  A    between atoms: N1_10  and  C8_11 
ROOT
ATOM      1  C2  UNK     1       0.373  37.148 236.437  1.00  0.00     0.064 A 
ATOM      2  C3  UNK     1       1.378  37.802 237.159  1.00  0.00     0.020 A 
ATOM      3  C4  UNK     1       2.682  37.312 237.168  1.00  0.00     0.001 A 
ATOM      4  C5  UNK     1       3.014  36.159 236.462  1.00  0.00     0.002 A 
ATOM      5  C6  UNK     1       2.049  35.460 235.727  1.00  0.00     0.030 A 
ATOM      6  C7  UNK     1       0.701  35.878 235.685  1.00  0.00     0.049 A 
ENDROOT
BRANCH   6   7
ATOM      7  N1  UNK     1      -0.335  35.262 234.997  1.00  0.00    -0.355 N 
ATOM      8  H6  UNK     1      -1.262  35.249 235.374  1.00  0.00     0.166 HD
BRANCH   7   9
ATOM      9  C8  UNK     1      -0.066  34.676 233.800  1.00  0.00     0.039 A 
ATOM     10  C9  UNK     1       0.265  33.215 233.680  1.00  0.00    -0.029 A 
ATOM     11  C10 UNK     1       0.034  32.246 234.820  1.00  0.00     0.051 C 
ATOM     12  C14 UNK     1       0.809  32.724 232.378  1.00  0.00    -0.054 A 
ATOM     13  C13 UNK     1       1.013  33.629 231.337  1.00  0.00     0.007 A 
ATOM     14  C15 UNK     1       1.133  31.267 232.170  1.00  0.00     0.049 C 
ATOM     15  C12 UNK     1       0.723  34.985 231.502  1.00  0.00     0.003 A 
ATOM     16  C11 UNK     1       0.215  35.500 232.704  1.00  0.00     0.030 A 
ENDBRANCH   7   9
ENDBRANCH   6   7
BRANCH   1  17
ATOM     17  C1  UNK     1      -1.042  37.714 236.466  1.00  0.00     0.178 C 
ATOM     18  O1  UNK     1      -1.997  36.959 236.783  1.00  0.00    -0.646 OA
BRANCH  17  19
ATOM     19  O2  UNK     1      -1.259  38.915 236.152  1.00  0.00    -0.773 OA
ATOM     20  H1  UNK     1      -1.976  39.255 236.675  1.00  0.00     0.167 HD
ENDBRANCH  17  19
ENDBRANCH   1  17
TORSDOF 4
ENDMDL
MODEL 7
REMARK VINA RESULT:      -6.0      9.766     10.836
REMARK  4 active torsions:
REMARK  status: ('A' for Active; 'I' for Inactive)
REMARK    1  A    between atoms: C1_2  and  O2_3 
REMARK    2  A    between atoms: C1_2  and  C2_4 
REMARK    3  A    between atoms: C7_9  and  N1_10 
REMARK    4  A    between atoms: N1_10  and  C8_11 
ROOT
ATOM      1  C2  UNK     1       0.557  36.250 235.072  1.00  0.00     0.064 A 
ATOM      2  C3  UNK     1      -0.819  36.469 235.206  1.00  0.00     0.020 A 
ATOM      3  C4  UNK     1      -1.309  37.349 236.168  1.00  0.00     0.001 A 
ATOM      4  C5  UNK     1      -0.443  38.029 237.019  1.00  0.00     0.002 A 
ATOM      5  C6  UNK     1       0.943  37.846 236.935  1.00  0.00     0.030 A 
ATOM      6  C7  UNK     1       1.518  36.954 236.003  1.00  0.00     0.049 A 
ENDROOT
BRANCH   6   7
ATOM      7  N1  UNK     1       2.871  36.691 235.837  1.00  0.00    -0.355 N 
ATOM      8  H6  UNK     1       3.294  36.741 234.932  1.00  0.00     0.166 HD
BRANCH   7   9
ATOM      9  C8  UNK     1       3.611  36.363 236.930  1.00  0.00     0.039 A 
ATOM     10  C9  UNK     1       3.633  34.969 237.493  1.00  0.00    -0.029 A 
ATOM     11  C10 UNK     1       3.082  33.788 236.725  1.00  0.00     0.051 C 
ATOM     12  C14 UNK     1       4.249  34.767 238.838  1.00  0.00    -0.054 A 
ATOM     13  C13 UNK     1       4.755  35.867 239.532  1.00  0.00     0.007 A 
ATOM     14  C15 UNK     1       4.339  33.395 239.456  1.00  0.00     0.049 C 
ATOM     15  C12 UNK     1       4.684  37.149 238.986  1.00  0.00     0.003 A 
ATOM     16  C11 UNK     1       4.112  37.397 237.729  1.00  0.00     0.030 A 
ENDBRANCH   7   9
ENDBRANCH   6   7
BRANCH   1  17
ATOM     17  C1  UNK     1       1.048  35.268 234.015  1.00  0.00     0.178 C 
ATOM     18  O1  UNK     1       1.738  35.695 233.054  1.00  0.00    -0.646 OA
BRANCH  17  19
ATOM     19  O2  UNK     1       0.745  34.046 234.086  1.00  0.00    -0.773 OA
ATOM     20  H1  UNK     1      -0.178  33.936 233.892  1.00  0.00     0.167 HD
ENDBRANCH  17  19
ENDBRANCH   1  17
TORSDOF 4
ENDMDL
MODEL 8
REMARK VINA RESULT:      -5.9      8.774     10.486
REMARK  4 active torsions:
REMARK  status: ('A' for Active; 'I' for Inactive)
REMARK    1  A    between atoms: C1_2  and  O2_3 
REMARK    2  A    between atoms: C1_2  and  C2_4 
REMARK    3  A    between atoms: C7_9  and  N1_10 
REMARK    4  A    between atoms: N1_10  and  C8_11 
ROOT
ATOM      1  C2  UNK     1       1.451  36.747 236.688  1.00  0.00     0.064 A 
ATOM      2  C3  UNK     1       2.414  37.605 237.229  1.00  0.00     0.020 A 
ATOM      3  C4  UNK     1       3.737  37.192 237.370  1.00  0.00     0.001 A 
ATOM      4  C5  UNK     1       4.130  35.915 236.977  1.00  0.00     0.002 A 
ATOM      5  C6  UNK     1       3.208  35.012 236.434  1.00  0.00     0.030 A 
ATOM      6  C7  UNK     1       1.845  35.345 236.280  1.00  0.00     0.049 A 
ENDROOT
BRANCH   6   7
ATOM      7  N1  UNK     1       0.847  34.530 235.762  1.00  0.00    -0.355 N 
ATOM      8  H6  UNK     1      -0.042  34.460 236.215  1.00  0.00     0.166 HD
BRANCH   7   9
ATOM      9  C8  UNK     1       1.103  33.830 234.624  1.00  0.00     0.039 A 
ATOM     10  C9  UNK     1       0.908  34.425 233.258  1.00  0.00    -0.029 A 
ATOM     11  C10 UNK     1       0.705  35.910 233.053  1.00  0.00     0.051 C 
ATOM     12  C14 UNK     1       0.951  33.505 232.081  1.00  0.00    -0.054 A 
ATOM     13  C13 UNK     1       1.142  32.139 232.287  1.00  0.00     0.007 A 
ATOM     14  C15 UNK     1       0.797  34.030 230.677  1.00  0.00     0.049 C 
ATOM     15  C12 UNK     1       1.285  31.624 233.576  1.00  0.00     0.003 A 
ATOM     16  C11 UNK     1       1.249  32.441 234.716  1.00  0.00     0.030 A 
ENDBRANCH   7   9
ENDBRANCH   6   7
BRANCH   1  17
ATOM     17  C1  UNK     1       0.012  37.237 236.565  1.00  0.00     0.178 C 
ATOM     18  O1  UNK     1      -0.930  36.431 236.773  1.00  0.00    -0.646 OA
BRANCH  17  19
ATOM     19  O2  UNK     1      -0.233  38.429 236.235  1.00  0.00    -0.773 OA
ATOM     20  H1  UNK     1      -0.885  38.793 236.822  1.00  0.00     0.167 HD
ENDBRANCH  17  19
ENDBRANCH   1  17
TORSDOF 4
ENDMDL
MODEL 9
REMARK VINA RESULT:      -5.8      1.489      5.523
REMARK  4 active torsions:
REMARK  status: ('A' for Active; 'I' for Inactive)
REMARK    1  A    between atoms: C1_2  and  O2_3 
REMARK    2  A    between atoms: C1_2  and  C2_4 
REMARK    3  A    between atoms: C7_9  and  N1_10 
REMARK    4  A    between atoms: N1_10  and  C8_11 
ROOT
ATOM      1  C2  UNK     1       1.602  39.910 227.709  1.00  0.00     0.064 A 
ATOM      2  C3  UNK     1       2.817  40.549 227.438  1.00  0.00     0.020 A 
ATOM      3  C4  UNK     1       2.989  41.902 227.718  1.00  0.00     0.001 A 
ATOM      4  C5  UNK     1       1.954  42.651 228.273  1.00  0.00     0.002 A 
ATOM      5  C6  UNK     1       0.715  42.067 228.560  1.00  0.00     0.030 A 
ATOM      6  C7  UNK     1       0.453  40.708 228.283  1.00  0.00     0.049 A 
ENDROOT
BRANCH   6   7
ATOM      7  N1  UNK     1      -0.735  40.029 228.520  1.00  0.00    -0.355 N 
ATOM      8  H6  UNK     1      -0.845  39.460 229.335  1.00  0.00     0.166 HD
BRANCH   7   9
ATOM      9  C8  UNK     1      -1.748  40.154 227.621  1.00  0.00     0.039 A 
ATOM     10  C9  UNK     1      -2.813  39.105 227.463  1.00  0.00    -0.029 A 
ATOM     11  C10 UNK     1      -3.002  37.999 228.479  1.00  0.00     0.051 C 
ATOM     12  C14 UNK     1      -3.716  39.196 226.278  1.00  0.00    -0.054 A 
ATOM     13  C13 UNK     1      -3.530  40.223 225.353  1.00  0.00     0.007 A 
ATOM     14  C15 UNK     1      -4.829  38.202 226.068  1.00  0.00     0.049 C 
ATOM     15  C12 UNK     1      -2.507  41.158 225.520  1.00  0.00     0.003 A 
ATOM     16  C11 UNK     1      -1.628  41.117 226.612  1.00  0.00     0.030 A 
ENDBRANCH   7   9
ENDBRANCH   6   7
BRANCH   1  17
ATOM     17  C1  UNK     1       1.454  38.431 227.372  1.00  0.00     0.178 C 
ATOM     18  O1  UNK     1       0.632  37.734 228.018  1.00  0.00    -0.646 OA
BRANCH  17  19
ATOM     19  O2  UNK     1       2.166  37.904 226.475  1.00  0.00    -0.773 OA
ATOM     20  H1  UNK     1       1.615  37.636 225.749  1.00  0.00     0.167 HD
ENDBRANCH  17  19
ENDBRANCH   1  17
TORSDOF 4
ENDMDL
