MODEL 1
REMARK VINA RESULT:      -6.4      0.000      0.000
REMARK  4 active torsions:
REMARK  status: ('A' for Active; 'I' for Inactive)
REMARK    1  A    between atoms: N1_9  and  C15_17 
REMARK    2  A    between atoms: N2_11  and  C17_19 
REMARK    3  A    between atoms: C15_17  and  C16_18 
REMARK    4  A    between atoms: C16_18  and  C17_19 
ROOT
ATOM      1  C1  UNK     1       0.212  35.148 236.749  1.00  0.00     0.041 A 
ATOM      2  C2  UNK     1      -0.750  34.097 236.776  1.00  0.00     0.030 A 
ATOM      3  C3  UNK     1      -2.138  34.357 236.788  1.00  0.00     0.002 A 
ATOM      4  C4  UNK     1      -2.593  35.679 236.775  1.00  0.00     0.001 A 
ATOM      5  C5  UNK     1      -1.686  36.738 236.749  1.00  0.00     0.009 A 
ATOM      6  C6  UNK     1       4.102  35.153 239.583  1.00  0.00     0.002 A 
ATOM      7  C7  UNK     1       0.616  37.828 236.712  1.00  0.00     0.045 C 
ATOM      8  C8  UNK     1       2.130  37.681 236.671  1.00  0.00     0.045 C 
ATOM      9  N1  UNK     1       1.620  34.773 236.737  1.00  0.00    -0.346 N 
ATOM     10  C9  UNK     1       4.326  36.533 239.533  1.00  0.00     0.001 A 
ATOM     11  C10 UNK     1       3.674  37.304 238.581  1.00  0.00     0.009 A 
ATOM     12  C11 UNK     1       3.198  34.560 238.655  1.00  0.00     0.030 A 
ATOM     13  C12 UNK     1      -0.279  36.551 236.737  1.00  0.00    -0.031 A 
ATOM     14  C13 UNK     1       2.771  36.753 237.647  1.00  0.00    -0.031 A 
ATOM     15  C14 UNK     1       2.530  35.357 237.677  1.00  0.00     0.041 A 
ENDROOT
BRANCH   9  16
ATOM     16  C15 UNK     1       2.169  34.284 235.435  1.00  0.00     0.131 C 
BRANCH  16  17
ATOM     17  C16 UNK     1       1.639  35.051 234.201  1.00  0.00     0.050 C 
BRANCH  17  18
ATOM     18  C17 UNK     1       0.917  34.129 233.248  1.00  0.00     0.273 C 
BRANCH  18  19
ATOM     19  N2  UNK     1      -0.351  34.701 232.687  1.00  0.00     0.080 N 
ATOM     20  C18 UNK     1      -0.572  36.096 233.112  1.00  0.00     0.309 C 
ATOM     21  C19 UNK     1      -1.507  33.865 233.100  1.00  0.00     0.309 C 
ENDBRANCH  18  19
ENDBRANCH  17  18
ENDBRANCH  16  17
ENDBRANCH   9  16
TORSDOF 4
ENDMDL
MODEL 2
REMARK VINA RESULT:      -6.2      1.746      3.094
REMARK  4 active torsions:
REMARK  status: ('A' for Active; 'I' for Inactive)
REMARK    1  A    between atoms: N1_9  and  C15_17 
REMARK    2  A    between atoms: N2_11  and  C17_19 
REMARK    3  A    between atoms: C15_17  and  C16_18 
REMARK    4  A    between atoms: C16_18  and  C17_19 
ROOT
ATOM      1  C1  UNK     1       0.239  35.131 236.745  1.00  0.00     0.041 A 
ATOM      2  C2  UNK     1      -0.733  34.089 236.781  1.00  0.00     0.030 A 
ATOM      3  C3  UNK     1      -2.118  34.362 236.785  1.00  0.00     0.002 A 
ATOM      4  C4  UNK     1      -2.562  35.688 236.756  1.00  0.00     0.001 A 
ATOM      5  C5  UNK     1      -1.645  36.738 236.722  1.00  0.00     0.009 A 
ATOM      6  C6  UNK     1       4.119  35.132 239.593  1.00  0.00     0.002 A 
ATOM      7  C7  UNK     1       0.668  37.807 236.680  1.00  0.00     0.045 C 
ATOM      8  C8  UNK     1       2.180  37.645 236.646  1.00  0.00     0.045 C 
ATOM      9  N1  UNK     1       1.643  34.743 236.743  1.00  0.00    -0.346 N 
ATOM     10  C9  UNK     1       4.356  36.509 239.528  1.00  0.00     0.001 A 
ATOM     11  C10 UNK     1       3.715  37.276 238.565  1.00  0.00     0.009 A 
ATOM     12  C11 UNK     1       3.212  34.537 238.668  1.00  0.00     0.030 A 
ATOM     13  C12 UNK     1      -0.239  36.538 236.716  1.00  0.00    -0.031 A 
ATOM     14  C13 UNK     1       2.809  36.722 237.634  1.00  0.00    -0.031 A 
ATOM     15  C14 UNK     1       2.556  35.329 237.679  1.00  0.00     0.041 A 
ENDROOT
BRANCH   9  16
ATOM     16  C15 UNK     1       2.192  34.234 235.447  1.00  0.00     0.131 C 
BRANCH  16  17
ATOM     17  C16 UNK     1       2.372  32.699 235.400  1.00  0.00     0.050 C 
BRANCH  17  18
ATOM     18  C17 UNK     1       3.802  32.304 235.679  1.00  0.00     0.273 C 
BRANCH  18  19
ATOM     19  N2  UNK     1       3.953  31.297 236.780  1.00  0.00     0.080 N 
ATOM     20  C18 UNK     1       5.185  31.503 237.564  1.00  0.00     0.309 C 
ATOM     21  C19 UNK     1       3.947  29.924 236.213  1.00  0.00     0.309 C 
ENDBRANCH  18  19
ENDBRANCH  17  18
ENDBRANCH  16  17
ENDBRANCH   9  16
TORSDOF 4
ENDMDL
MODEL 3
REMARK VINA RESULT:      -6.1      2.235      4.732
REMARK  4 active torsions:
REMARK  status: ('A' for Active; 'I' for Inactive)
REMARK    1  A    between atoms: N1_9  and  C15_17 
REMARK    2  A    between atoms: N2_11  and  C17_19 
REMARK    3  A    between atoms: C15_17  and  C16_18 
REMARK    4  A    between atoms: C16_18  and  C17_19 
ROOT
ATOM      1  C1  UNK     1       3.444  32.790 236.746  1.00  0.00     0.041 A 
ATOM      2  C2  UNK     1       3.293  32.228 235.445  1.00  0.00     0.030 A 
ATOM      3  C3  UNK     1       4.061  31.122 235.017  1.00  0.00     0.002 A 
ATOM      4  C4  UNK     1       5.002  30.557 235.883  1.00  0.00     0.001 A 
ATOM      5  C5  UNK     1       5.183  31.077 237.165  1.00  0.00     0.009 A 
ATOM      6  C6  UNK     1       3.703  37.540 237.482  1.00  0.00     0.002 A 
ATOM      7  C7  UNK     1       4.758  32.663 239.113  1.00  0.00     0.045 C 
ATOM      8  C8  UNK     1       3.978  33.830 239.701  1.00  0.00     0.045 C 
ATOM      9  N1  UNK     1       2.603  33.928 237.089  1.00  0.00    -0.346 N 
ATOM     10  C9  UNK     1       4.350  37.467 238.720  1.00  0.00     0.001 A 
ATOM     11  C10 UNK     1       4.412  36.257 239.397  1.00  0.00     0.009 A 
ATOM     12  C11 UNK     1       3.120  36.361 236.931  1.00  0.00     0.030 A 
ATOM     13  C12 UNK     1       4.447  32.186 237.661  1.00  0.00    -0.031 A 
ATOM     14  C13 UNK     1       3.849  35.070 238.883  1.00  0.00    -0.031 A 
ATOM     15  C14 UNK     1       3.185  35.120 237.632  1.00  0.00     0.041 A 
ENDROOT
BRANCH   9  16
ATOM     16  C15 UNK     1       1.177  33.626 237.424  1.00  0.00     0.131 C 
BRANCH  16  17
ATOM     17  C16 UNK     1       0.166  34.090 236.350  1.00  0.00     0.050 C 
BRANCH  17  18
ATOM     18  C17 UNK     1      -0.594  35.314 236.802  1.00  0.00     0.273 C 
BRANCH  18  19
ATOM     19  N2  UNK     1      -0.371  36.523 235.942  1.00  0.00     0.080 N 
ATOM     20  C18 UNK     1      -0.492  37.781 236.701  1.00  0.00     0.309 C 
ATOM     21  C19 UNK     1      -1.338  36.525 234.815  1.00  0.00     0.309 C 
ENDBRANCH  18  19
ENDBRANCH  17  18
ENDBRANCH  16  17
ENDBRANCH   9  16
TORSDOF 4
ENDMDL
MODEL 4
REMARK VINA RESULT:      -5.9      2.302      3.728
REMARK  4 active torsions:
REMARK  status: ('A' for Active; 'I' for Inactive)
REMARK    1  A    between atoms: N1_9  and  C15_17 
REMARK    2  A    between atoms: N2_11  and  C17_19 
REMARK    3  A    between atoms: C15_17  and  C16_18 
REMARK    4  A    between atoms: C16_18  and  C17_19 
ROOT
ATOM      1  C1  UNK     1       0.829  36.120 235.480  1.00  0.00     0.041 A 
ATOM      2  C2  UNK     1      -0.525  36.542 235.334  1.00  0.00     0.030 A 
ATOM      3  C3  UNK     1      -1.102  37.503 236.194  1.00  0.00     0.002 A 
ATOM      4  C4  UNK     1      -0.336  38.060 237.222  1.00  0.00     0.001 A 
ATOM      5  C5  UNK     1       0.992  37.673 237.402  1.00  0.00     0.009 A 
ATOM      6  C6  UNK     1       2.113  31.486 235.279  1.00  0.00     0.002 A 
ATOM      7  C7  UNK     1       3.126  36.376 236.896  1.00  0.00     0.045 C 
ATOM      8  C8  UNK     1       3.869  35.374 236.025  1.00  0.00     0.045 C 
ATOM      9  N1  UNK     1       1.328  35.125 234.541  1.00  0.00    -0.346 N 
ATOM     10  C9  UNK     1       3.315  31.630 235.981  1.00  0.00     0.001 A 
ATOM     11  C10 UNK     1       3.843  32.896 236.194  1.00  0.00     0.009 A 
ATOM     12  C11 UNK     1       1.443  32.648 234.799  1.00  0.00     0.030 A 
ATOM     13  C12 UNK     1       1.637  36.714 236.577  1.00  0.00    -0.031 A 
ATOM     14  C13 UNK     1       3.208  34.069 235.736  1.00  0.00    -0.031 A 
ATOM     15  C14 UNK     1       1.991  33.948 235.020  1.00  0.00     0.041 A 
ENDROOT
BRANCH   9  16
ATOM     16  C15 UNK     1       1.666  35.615 233.168  1.00  0.00     0.131 C 
BRANCH  16  17
ATOM     17  C16 UNK     1       0.668  35.164 232.076  1.00  0.00     0.050 C 
BRANCH  17  18
ATOM     18  C17 UNK     1       1.383  34.775 230.804  1.00  0.00     0.273 C 
BRANCH  18  19
ATOM     19  N2  UNK     1       0.796  35.383 229.565  1.00  0.00     0.080 N 
ATOM     20  C18 UNK     1      -0.426  34.686 229.123  1.00  0.00     0.309 C 
ATOM     21  C19 UNK     1       1.802  35.368 228.472  1.00  0.00     0.309 C 
ENDBRANCH  18  19
ENDBRANCH  17  18
ENDBRANCH  16  17
ENDBRANCH   9  16
TORSDOF 4
ENDMDL
MODEL 5
REMARK VINA RESULT:      -5.4      2.452      5.682
REMARK  4 active torsions:
REMARK  status: ('A' for Active; 'I' for Inactive)
REMARK    1  A    between atoms: N1_9  and  C15_17 
REMARK    2  A    between atoms: N2_11  and  C17_19 
REMARK    3  A    between atoms: C15_17  and  C16_18 
REMARK    4  A    between atoms: C16_18  and  C17_19 
ROOT
ATOM      1  C1  UNK     1       0.909  33.649 232.592  1.00  0.00     0.041 A 
ATOM      2  C2  UNK     1       0.900  34.924 231.956  1.00  0.00     0.030 A 
ATOM      3  C3  UNK     1       0.861  35.055 230.550  1.00  0.00     0.002 A 
ATOM      4  C4  UNK     1       0.833  33.909 229.750  1.00  0.00     0.001 A 
ATOM      5  C5  UNK     1       0.841  32.641 230.331  1.00  0.00     0.009 A 
ATOM      6  C6  UNK     1       3.885  32.607 236.229  1.00  0.00     0.002 A 
ATOM      7  C7  UNK     1       0.890  30.960 232.246  1.00  0.00     0.045 C 
ATOM      8  C8  UNK     1       0.905  30.686 233.742  1.00  0.00     0.045 C 
ATOM      9  N1  UNK     1       0.950  33.623 234.048  1.00  0.00    -0.346 N 
ATOM     10  C9  UNK     1       3.844  31.218 236.067  1.00  0.00     0.001 A 
ATOM     11  C10 UNK     1       2.869  30.645 235.262  1.00  0.00     0.009 A 
ATOM     12  C11 UNK     1       2.924  33.416 235.556  1.00  0.00     0.030 A 
ATOM     13  C12 UNK     1       0.881  32.435 231.736  1.00  0.00    -0.031 A 
ATOM     14  C13 UNK     1       1.903  31.413 234.578  1.00  0.00    -0.031 A 
ATOM     15  C14 UNK     1       1.923  32.822 234.730  1.00  0.00     0.041 A 
ENDROOT
BRANCH   9  16
ATOM     16  C15 UNK     1      -0.333  33.928 234.756  1.00  0.00     0.131 C 
BRANCH  16  17
ATOM     17  C16 UNK     1      -0.454  35.394 235.233  1.00  0.00     0.050 C 
BRANCH  17  18
ATOM     18  C17 UNK     1       0.100  35.568 236.626  1.00  0.00     0.273 C 
BRANCH  18  19
ATOM     19  N2  UNK     1       1.137  36.645 236.741  1.00  0.00     0.080 N 
ATOM     20  C18 UNK     1       0.593  37.888 237.317  1.00  0.00     0.309 C 
ATOM     21  C19 UNK     1       1.721  36.927 235.405  1.00  0.00     0.309 C 
ENDBRANCH  18  19
ENDBRANCH  17  18
ENDBRANCH  16  17
ENDBRANCH   9  16
TORSDOF 4
ENDMDL
MODEL 6
REMARK VINA RESULT:      -5.3      2.317      4.271
REMARK  4 active torsions:
REMARK  status: ('A' for Active; 'I' for Inactive)
REMARK    1  A    between atoms: N1_9  and  C15_17 
REMARK    2  A    between atoms: N2_11  and  C17_19 
REMARK    3  A    between atoms: C15_17  and  C16_18 
REMARK    4  A    between atoms: C16_18  and  C17_19 
ROOT
ATOM      1  C1  UNK     1      -0.437  33.112 237.710  1.00  0.00     0.041 A 
ATOM      2  C2  UNK     1       0.050  31.990 238.441  1.00  0.00     0.030 A 
ATOM      3  C3  UNK     1      -0.768  31.279 239.346  1.00  0.00     0.002 A 
ATOM      4  C4  UNK     1      -2.093  31.680 239.543  1.00  0.00     0.001 A 
ATOM      5  C5  UNK     1      -2.610  32.774 238.849  1.00  0.00     0.009 A 
ATOM      6  C6  UNK     1       2.089  37.185 237.263  1.00  0.00     0.002 A 
ATOM      7  C7  UNK     1      -2.553  34.735 237.223  1.00  0.00     0.045 C 
ATOM      8  C8  UNK     1      -1.786  35.565 236.204  1.00  0.00     0.045 C 
ATOM      9  N1  UNK     1       0.487  33.775 236.800  1.00  0.00    -0.346 N 
ATOM     10  C9  UNK     1       0.997  38.012 236.978  1.00  0.00     0.001 A 
ATOM     11  C10 UNK     1      -0.226  37.449 236.641  1.00  0.00     0.009 A 
ATOM     12  C11 UNK     1       1.925  35.770 237.209  1.00  0.00     0.030 A 
ATOM     13  C12 UNK     1      -1.846  33.534 237.925  1.00  0.00    -0.031 A 
ATOM     14  C13 UNK     1      -0.427  36.053 236.578  1.00  0.00    -0.031 A 
ATOM     15  C14 UNK     1       0.665  35.196 236.860  1.00  0.00     0.041 A 
ENDROOT
BRANCH   9  16
ATOM     16  C15 UNK     1       0.750  33.086 235.498  1.00  0.00     0.131 C 
BRANCH  16  17
ATOM     17  C16 UNK     1       2.250  32.860 235.199  1.00  0.00     0.050 C 
BRANCH  17  18
ATOM     18  C17 UNK     1       2.668  31.445 235.520  1.00  0.00     0.273 C 
BRANCH  18  19
ATOM     19  N2  UNK     1       3.682  31.344 236.621  1.00  0.00     0.080 N 
ATOM     20  C18 UNK     1       4.081  32.665 237.139  1.00  0.00     0.309 C 
ATOM     21  C19 UNK     1       4.881  30.614 236.137  1.00  0.00     0.309 C 
ENDBRANCH  18  19
ENDBRANCH  17  18
ENDBRANCH  16  17
ENDBRANCH   9  16
TORSDOF 4
ENDMDL
MODEL 7
REMARK VINA RESULT:      -5.3      1.699      5.183
REMARK  4 active torsions:
REMARK  status: ('A' for Active; 'I' for Inactive)
REMARK    1  A    between atoms: N1_9  and  C15_17 
REMARK    2  A    between atoms: N2_11  and  C17_19 
REMARK    3  A    between atoms: C15_17  and  C16_18 
REMARK    4  A    between atoms: C16_18  and  C17_19 
ROOT
ATOM      1  C1  UNK     1       2.143  35.586 236.141  1.00  0.00     0.041 A 
ATOM      2  C2  UNK     1       3.533  35.358 236.360  1.00  0.00     0.030 A 
ATOM      3  C3  UNK     1       4.313  36.222 237.161  1.00  0.00     0.002 A 
ATOM      4  C4  UNK     1       3.716  37.337 237.758  1.00  0.00     0.001 A 
ATOM      5  C5  UNK     1       2.359  37.597 237.569  1.00  0.00     0.009 A 
ATOM      6  C6  UNK     1       0.132  35.228 231.783  1.00  0.00     0.002 A 
ATOM      7  C7  UNK     1       0.018  37.188 236.651  1.00  0.00     0.045 C 
ATOM      8  C8  UNK     1      -0.933  36.323 235.836  1.00  0.00     0.045 C 
ATOM      9  N1  UNK     1       1.430  34.634 235.300  1.00  0.00    -0.346 N 
ATOM     10  C9  UNK     1      -0.981  36.028 232.062  1.00  0.00     0.001 A 
ATOM     11  C10 UNK     1      -1.286  36.352 233.377  1.00  0.00     0.009 A 
ATOM     12  C11 UNK     1       0.943  34.762 232.859  1.00  0.00     0.030 A 
ATOM     13  C12 UNK     1       1.516  36.773 236.777  1.00  0.00    -0.031 A 
ATOM     14  C13 UNK     1      -0.507  35.911 234.467  1.00  0.00    -0.031 A 
ATOM     15  C14 UNK     1       0.624  35.097 234.209  1.00  0.00     0.041 A 
ENDROOT
BRANCH   9  16
ATOM     16  C15 UNK     1       1.080  33.322 235.927  1.00  0.00     0.131 C 
BRANCH  16  17
ATOM     17  C16 UNK     1       0.710  33.419 237.425  1.00  0.00     0.050 C 
BRANCH  17  18
ATOM     18  C17 UNK     1      -0.363  32.422 237.792  1.00  0.00     0.273 C 
BRANCH  18  19
ATOM     19  N2  UNK     1      -1.729  32.783 237.289  1.00  0.00     0.080 N 
ATOM     20  C18 UNK     1      -2.416  33.744 238.171  1.00  0.00     0.309 C 
ATOM     21  C19 UNK     1      -2.555  31.556 237.149  1.00  0.00     0.309 C 
ENDBRANCH  18  19
ENDBRANCH  17  18
ENDBRANCH  16  17
ENDBRANCH   9  16
TORSDOF 4
ENDMDL
MODEL 8
REMARK VINA RESULT:      -5.3      1.500      5.405
REMARK  4 active torsions:
REMARK  status: ('A' for Active; 'I' for Inactive)
REMARK    1  A    between atoms: N1_9  and  C15_17 
REMARK    2  A    between atoms: N2_11  and  C17_19 
REMARK    3  A    between atoms: C15_17  and  C16_18 
REMARK    4  A    between atoms: C16_18  and  C17_19 
ROOT
ATOM      1  C1  UNK     1      -0.944  34.979 236.182  1.00  0.00     0.041 A 
ATOM      2  C2  UNK     1      -2.139  34.974 236.959  1.00  0.00     0.030 A 
ATOM      3  C3  UNK     1      -2.410  33.958 237.902  1.00  0.00     0.002 A 
ATOM      4  C4  UNK     1      -1.490  32.921 238.085  1.00  0.00     0.001 A 
ATOM      5  C5  UNK     1      -0.309  32.886 237.343  1.00  0.00     0.009 A 
ATOM      6  C6  UNK     1      -0.956  35.875 231.453  1.00  0.00     0.002 A 
ATOM      7  C7  UNK     1       1.381  33.704 235.621  1.00  0.00     0.045 C 
ATOM      8  C8  UNK     1       1.801  34.749 234.598  1.00  0.00     0.045 C 
ATOM      9  N1  UNK     1      -0.760  36.073 235.238  1.00  0.00    -0.346 N 
ATOM     10  C9  UNK     1       0.262  35.245 231.175  1.00  0.00     0.001 A 
ATOM     11  C10 UNK     1       1.117  34.905 232.215  1.00  0.00     0.009 A 
ATOM     12  C11 UNK     1      -1.304  36.151 232.807  1.00  0.00     0.030 A 
ATOM     13  C12 UNK     1       0.028  33.872 236.379  1.00  0.00    -0.031 A 
ATOM     14  C13 UNK     1       0.805  35.160 233.567  1.00  0.00    -0.031 A 
ATOM     15  C14 UNK     1      -0.422  35.799 233.872  1.00  0.00     0.041 A 
ENDROOT
BRANCH   9  16
ATOM     16  C15 UNK     1      -0.347  37.389 235.816  1.00  0.00     0.131 C 
BRANCH  16  17
ATOM     17  C16 UNK     1       0.518  37.272 237.092  1.00  0.00     0.050 C 
BRANCH  17  18
ATOM     18  C17 UNK     1       1.982  37.478 236.785  1.00  0.00     0.273 C 
BRANCH  18  19
ATOM     19  N2  UNK     1       2.897  37.146 237.926  1.00  0.00     0.080 N 
ATOM     20  C18 UNK     1       4.270  37.639 237.706  1.00  0.00     0.309 C 
ATOM     21  C19 UNK     1       2.924  35.677 238.140  1.00  0.00     0.309 C 
ENDBRANCH  18  19
ENDBRANCH  17  18
ENDBRANCH  16  17
ENDBRANCH   9  16
TORSDOF 4
ENDMDL
MODEL 9
REMARK VINA RESULT:      -5.3      2.269      5.558
REMARK  4 active torsions:
REMARK  status: ('A' for Active; 'I' for Inactive)
REMARK    1  A    between atoms: N1_9  and  C15_17 
REMARK    2  A    between atoms: N2_11  and  C17_19 
REMARK    3  A    between atoms: C15_17  and  C16_18 
REMARK    4  A    between atoms: C16_18  and  C17_19 
ROOT
ATOM      1  C1  UNK     1       2.047  35.500 235.865  1.00  0.00     0.041 A 
ATOM      2  C2  UNK     1       3.441  35.456 236.158  1.00  0.00     0.030 A 
ATOM      3  C3  UNK     1       4.038  36.350 237.074  1.00  0.00     0.002 A 
ATOM      4  C4  UNK     1       3.251  37.312 237.714  1.00  0.00     0.001 A 
ATOM      5  C5  UNK     1       1.882  37.391 237.454  1.00  0.00     0.009 A 
ATOM      6  C6  UNK     1       0.354  35.234 231.366  1.00  0.00     0.002 A 
ATOM      7  C7  UNK     1      -0.318  36.732 236.352  1.00  0.00     0.045 C 
ATOM      8  C8  UNK     1      -1.083  35.813 235.411  1.00  0.00     0.045 C 
ATOM      9  N1  UNK     1       1.530  34.532 234.906  1.00  0.00    -0.346 N 
ATOM     10  C9  UNK     1      -0.879  35.840 231.631  1.00  0.00     0.001 A 
ATOM     11  C10 UNK     1      -1.301  36.002 232.943  1.00  0.00     0.009 A 
ATOM     12  C11 UNK     1       1.165  34.798 232.455  1.00  0.00     0.030 A 
ATOM     13  C12 UNK     1       1.216  36.526 236.547  1.00  0.00    -0.031 A 
ATOM     14  C13 UNK     1      -0.526  35.586 234.047  1.00  0.00    -0.031 A 
ATOM     15  C14 UNK     1       0.726  34.967 233.803  1.00  0.00     0.041 A 
ENDROOT
BRANCH   9  16
ATOM     16  C15 UNK     1       1.344  33.134 235.406  1.00  0.00     0.131 C 
BRANCH  16  17
ATOM     17  C16 UNK     1       2.299  32.104 234.759  1.00  0.00     0.050 C 
BRANCH  17  18
ATOM     18  C17 UNK     1       2.093  30.724 235.336  1.00  0.00     0.273 C 
BRANCH  18  19
ATOM     19  N2  UNK     1       3.284  30.185 236.070  1.00  0.00     0.080 N 
ATOM     20  C18 UNK     1       3.178  30.375 237.529  1.00  0.00     0.309 C 
ATOM     21  C19 UNK     1       4.522  30.837 235.571  1.00  0.00     0.309 C 
ENDBRANCH  18  19
ENDBRANCH  17  18
ENDBRANCH  16  17
ENDBRANCH   9  16
TORSDOF 4
ENDMDL
