MODEL 1
REMARK VINA RESULT:      -6.4      0.000      0.000
REMARK  9 active torsions:
REMARK  status: ('A' for Active; 'I' for Inactive)
REMARK    1  A    between atoms: C2_3  and  C3_4 
REMARK    2  A    between atoms: C3_4  and  O1_5 
REMARK    3  A    between atoms: C4_8  and  C5_9 
REMARK    4  A    between atoms: C5_9  and  C6_10 
REMARK    5  A    between atoms: C6_10  and  C7_11 
REMARK    6  A    between atoms: N2_13  and  C9_14 
REMARK    7  A    between atoms: C9_14  and  C10_15 
REMARK    8  A    between atoms: C15_20  and  C16_21 
REMARK    9  A    between atoms: C21_26  and  C22_27 
ROOT
ATOM      1  C10 UNK     1       0.771  33.809 235.899  1.00  0.00    -0.040 C 
ATOM      2  C11 UNK     1       2.125  33.829 235.183  1.00  0.00     0.010 C 
ATOM      3  C12 UNK     1       3.386  33.870 236.068  1.00  0.00     0.013 C 
ATOM      4  C13 UNK     1       0.582  33.510 237.351  1.00  0.00     0.010 C 
ATOM      5  C14 UNK     1       1.802  33.569 238.196  1.00  0.00     0.013 C 
ATOM      6  C15 UNK     1       3.155  33.889 237.597  1.00  0.00    -0.025 C 
ENDROOT
BRANCH   1   7
ATOM      7  C9  UNK     1      -0.541  33.536 235.180  1.00  0.00     0.169 C 
BRANCH   7   8
ATOM      8  N2  UNK     1      -0.779  34.755 234.518  1.00  0.00    -0.331 N 
ATOM      9  C2  UNK     1      -0.679  34.777 233.099  1.00  0.00     0.075 C 
ATOM     10  C1  UNK     1      -0.972  36.288 232.805  1.00  0.00     0.130 C 
ATOM     11 Cl1  UNK     1      -1.348  36.981 231.231  1.00  0.00    -0.062 Cl
ATOM     12  N1  UNK     1      -1.187  37.015 234.040  1.00  0.00    -0.335 N 
ATOM     13  C4  UNK     1      -0.813  36.107 235.086  1.00  0.00     0.085 C 
ATOM     14  H1  UNK     1      -1.532  37.969 234.144  1.00  0.00     0.168 HD
BRANCH   9  15
ATOM     15  C3  UNK     1      -0.762  33.582 232.149  1.00  0.00     0.224 C 
BRANCH  15  16
ATOM     16  O1  UNK     1       0.498  32.990 231.860  1.00  0.00    -0.395 OA
ATOM     17  H3  UNK     1       0.505  32.685 230.961  1.00  0.00     0.209 HD
ENDBRANCH  15  16
ENDBRANCH   9  15
BRANCH  13  18
ATOM     18  C5  UNK     1      -0.919  36.542 236.539  1.00  0.00     0.076 C 
BRANCH  18  19
ATOM     19  C6  UNK     1       0.048  37.695 236.851  1.00  0.00     0.007 C 
BRANCH  19  20
ATOM     20  C7  UNK     1       1.473  37.538 236.309  1.00  0.00    -0.004 C 
ATOM     21  C8  UNK     1       2.491  37.417 237.413  1.00  0.00     0.005 C 
ENDBRANCH  19  20
ENDBRANCH  18  19
ENDBRANCH  13  18
ENDBRANCH   7   8
ENDBRANCH   1   7
BRANCH   6  22
ATOM     22  C16 UNK     1       4.327  33.763 238.572  1.00  0.00    -0.012 C 
ATOM     23  C17 UNK     1       4.468  34.897 239.534  1.00  0.00     0.013 C 
ATOM     24  C18 UNK     1       5.516  34.777 240.604  1.00  0.00     0.001 C 
ATOM     25  C19 UNK     1       6.245  33.471 240.815  1.00  0.00     0.001 C 
ATOM     26  C20 UNK     1       5.994  32.267 239.934  1.00  0.00     0.016 C 
ATOM     27  C21 UNK     1       4.844  32.392 238.954  1.00  0.00     0.022 C 
BRANCH  27  28
ATOM     28  C22 UNK     1       4.676  31.249 237.963  1.00  0.00     0.148 A 
ATOM     29  N3  UNK     1       5.578  31.017 236.850  1.00  0.00    -0.268 N 
ATOM     30  N6  UNK     1       4.956  30.043 236.229  1.00  0.00    -0.227 N 
ATOM     31  H3  UNK     1       6.455  31.483 236.614  1.00  0.00     0.190 HD
ATOM     32  N5  UNK     1       3.774  29.763 236.815  1.00  0.00    -0.227 N 
ATOM     33  H6  UNK     1       5.320  29.559 235.409  1.00  0.00     0.210 HD
ATOM     34  N4  UNK     1       3.450  30.485 237.875  1.00  0.00    -0.268 N 
ATOM     35  H23 UNK     1       3.172  29.046 236.465  1.00  0.00     0.210 HD
ATOM     36  H4  UNK     1       2.606  30.500 238.448  1.00  0.00     0.190 HD
ENDBRANCH  27  28
ENDBRANCH   6  22
TORSDOF 9
ENDMDL
MODEL 2
REMARK VINA RESULT:      -6.4      3.188      4.869
REMARK  9 active torsions:
REMARK  status: ('A' for Active; 'I' for Inactive)
REMARK    1  A    between atoms: C2_3  and  C3_4 
REMARK    2  A    between atoms: C3_4  and  O1_5 
REMARK    3  A    between atoms: C4_8  and  C5_9 
REMARK    4  A    between atoms: C5_9  and  C6_10 
REMARK    5  A    between atoms: C6_10  and  C7_11 
REMARK    6  A    between atoms: N2_13  and  C9_14 
REMARK    7  A    between atoms: C9_14  and  C10_15 
REMARK    8  A    between atoms: C15_20  and  C16_21 
REMARK    9  A    between atoms: C21_26  and  C22_27 
ROOT
ATOM      1  C10 UNK     1       0.662  32.699 235.038  1.00  0.00    -0.040 C 
ATOM      2  C11 UNK     1      -0.203  33.401 236.089  1.00  0.00     0.010 C 
ATOM      3  C12 UNK     1       0.531  34.092 237.253  1.00  0.00     0.013 C 
ATOM      4  C13 UNK     1       2.135  32.898 234.879  1.00  0.00     0.010 C 
ATOM      5  C14 UNK     1       2.834  33.550 236.016  1.00  0.00     0.013 C 
ATOM      6  C15 UNK     1       2.076  34.006 237.244  1.00  0.00    -0.025 C 
ENDROOT
BRANCH   1   7
ATOM      7  C9  UNK     1       0.106  32.179 233.722  1.00  0.00     0.169 C 
BRANCH   7   8
ATOM      8  N2  UNK     1      -0.709  33.244 233.298  1.00  0.00    -0.331 N 
ATOM      9  C2  UNK     1      -2.119  33.050 233.297  1.00  0.00     0.075 C 
ATOM     10  C1  UNK     1      -2.607  34.429 232.736  1.00  0.00     0.130 C 
ATOM     11 Cl1  UNK     1      -4.260  35.035 232.775  1.00  0.00    -0.062 Cl
ATOM     12  N1  UNK     1      -1.477  35.286 232.437  1.00  0.00    -0.335 N 
ATOM     13  C4  UNK     1      -0.321  34.446 232.551  1.00  0.00     0.085 C 
ATOM     14  H1  UNK     1      -1.500  36.278 232.197  1.00  0.00     0.168 HD
BRANCH   9  15
ATOM     15  C3  UNK     1      -2.906  32.001 234.081  1.00  0.00     0.224 C 
BRANCH  15  16
ATOM     16  O1  UNK     1      -3.591  32.523 235.213  1.00  0.00    -0.395 OA
ATOM     17  H3  UNK     1      -2.983  32.614 235.937  1.00  0.00     0.209 HD
ENDBRANCH  15  16
ENDBRANCH   9  15
BRANCH  13  18
ATOM     18  C5  UNK     1       1.064  35.025 232.307  1.00  0.00     0.076 C 
BRANCH  18  19
ATOM     19  C6  UNK     1       1.430  34.989 230.814  1.00  0.00     0.007 C 
BRANCH  19  20
ATOM     20  C7  UNK     1       0.901  33.787 230.025  1.00  0.00    -0.004 C 
ATOM     21  C8  UNK     1       1.271  33.857 228.567  1.00  0.00     0.005 C 
ENDBRANCH  19  20
ENDBRANCH  18  19
ENDBRANCH  13  18
ENDBRANCH   7   8
ENDBRANCH   1   7
BRANCH   6  22
ATOM     22  C16 UNK     1       2.915  34.791 238.254  1.00  0.00    -0.012 C 
ATOM     23  C17 UNK     1       3.850  33.962 239.072  1.00  0.00     0.013 C 
ATOM     24  C18 UNK     1       4.797  34.682 239.990  1.00  0.00     0.001 C 
ATOM     25  C19 UNK     1       4.932  36.185 239.923  1.00  0.00     0.001 C 
ATOM     26  C20 UNK     1       4.090  37.018 238.982  1.00  0.00     0.016 C 
ATOM     27  C21 UNK     1       3.243  36.245 237.989  1.00  0.00     0.022 C 
BRANCH  27  28
ATOM     28  C22 UNK     1       2.284  37.066 237.139  1.00  0.00     0.148 A 
ATOM     29  N3  UNK     1       1.035  37.608 237.643  1.00  0.00    -0.268 N 
ATOM     30  N6  UNK     1       0.516  38.093 236.540  1.00  0.00    -0.227 N 
ATOM     31  H3  UNK     1       0.662  37.612 238.593  1.00  0.00     0.190 HD
ATOM     32  N5  UNK     1       1.286  37.809 235.469  1.00  0.00    -0.227 N 
ATOM     33  H6  UNK     1      -0.358  38.617 236.497  1.00  0.00     0.210 HD
ATOM     34  N4  UNK     1       2.392  37.120 235.698  1.00  0.00    -0.268 N 
ATOM     35  H23 UNK     1       1.033  38.106 234.549  1.00  0.00     0.210 HD
ATOM     36  H4  UNK     1       3.095  36.746 235.061  1.00  0.00     0.190 HD
ENDBRANCH  27  28
ENDBRANCH   6  22
TORSDOF 9
ENDMDL
MODEL 3
REMARK VINA RESULT:      -6.4      2.524      3.053
REMARK  9 active torsions:
REMARK  status: ('A' for Active; 'I' for Inactive)
REMARK    1  A    between atoms: C2_3  and  C3_4 
REMARK    2  A    between atoms: C3_4  and  O1_5 
REMARK    3  A    between atoms: C4_8  and  C5_9 
REMARK    4  A    between atoms: C5_9  and  C6_10 
REMARK    5  A    between atoms: C6_10  and  C7_11 
REMARK    6  A    between atoms: N2_13  and  C9_14 
REMARK    7  A    between atoms: C9_14  and  C10_15 
REMARK    8  A    between atoms: C15_20  and  C16_21 
REMARK    9  A    between atoms: C21_26  and  C22_27 
ROOT
ATOM      1  C10 UNK     1       0.264  33.713 235.617  1.00  0.00    -0.040 C 
ATOM      2  C11 UNK     1       1.733  33.858 235.206  1.00  0.00     0.010 C 
ATOM      3  C12 UNK     1       2.777  33.898 236.337  1.00  0.00     0.013 C 
ATOM      4  C13 UNK     1      -0.200  33.294 236.976  1.00  0.00     0.010 C 
ATOM      5  C14 UNK     1       0.812  33.354 238.061  1.00  0.00     0.013 C 
ATOM      6  C15 UNK     1       2.235  33.789 237.782  1.00  0.00    -0.025 C 
ENDROOT
BRANCH   1   7
ATOM      7  C9  UNK     1      -0.850  33.426 234.623  1.00  0.00     0.169 C 
BRANCH   7   8
ATOM      8  N2  UNK     1      -1.058  34.688 234.035  1.00  0.00    -0.331 N 
ATOM      9  C2  UNK     1      -0.758  34.840 232.652  1.00  0.00     0.075 C 
ATOM     10  C1  UNK     1      -1.089  36.357 232.443  1.00  0.00     0.130 C 
ATOM     11 Cl1  UNK     1      -1.275  37.171 230.892  1.00  0.00    -0.062 Cl
ATOM     12  N1  UNK     1      -1.518  36.961 233.688  1.00  0.00    -0.335 N 
ATOM     13  C4  UNK     1      -1.247  35.981 234.700  1.00  0.00     0.085 C 
ATOM     14  H1  UNK     1      -1.926  37.887 233.818  1.00  0.00     0.168 HD
BRANCH   9  15
ATOM     15  C3  UNK     1      -0.639  33.731 231.606  1.00  0.00     0.224 C 
BRANCH  15  16
ATOM     16  O1  UNK     1      -1.888  33.182 231.206  1.00  0.00    -0.395 OA
ATOM     17  H3  UNK     1      -2.593  33.666 231.618  1.00  0.00     0.209 HD
ENDBRANCH  15  16
ENDBRANCH   9  15
BRANCH  13  18
ATOM     18  C5  UNK     1      -1.583  36.280 236.153  1.00  0.00     0.076 C 
BRANCH  18  19
ATOM     19  C6  UNK     1      -0.832  37.523 236.657  1.00  0.00     0.007 C 
BRANCH  19  20
ATOM     20  C7  UNK     1       0.634  37.305 237.047  1.00  0.00    -0.004 C 
ATOM     21  C8  UNK     1       1.573  37.568 235.899  1.00  0.00     0.005 C 
ENDBRANCH  19  20
ENDBRANCH  18  19
ENDBRANCH  13  18
ENDBRANCH   7   8
ENDBRANCH   1   7
BRANCH   6  22
ATOM     22  C16 UNK     1       3.186  33.652 238.972  1.00  0.00    -0.012 C 
ATOM     23  C17 UNK     1       3.303  32.271 239.527  1.00  0.00     0.013 C 
ATOM     24  C18 UNK     1       4.317  32.038 240.610  1.00  0.00     0.001 C 
ATOM     25  C19 UNK     1       5.314  33.115 240.967  1.00  0.00     0.001 C 
ATOM     26  C20 UNK     1       5.295  34.471 240.296  1.00  0.00     0.016 C 
ATOM     27  C21 UNK     1       4.342  34.618 239.126  1.00  0.00     0.022 C 
BRANCH  27  28
ATOM     28  C22 UNK     1       4.206  36.016 238.540  1.00  0.00     0.148 A 
ATOM     29  N3  UNK     1       4.850  36.431 237.306  1.00  0.00    -0.268 N 
ATOM     30  N6  UNK     1       4.562  37.710 237.298  1.00  0.00    -0.227 N 
ATOM     31  H3  UNK     1       5.382  35.880 236.632  1.00  0.00     0.190 HD
ATOM     32  N5  UNK     1       3.908  38.074 238.421  1.00  0.00    -0.227 N 
ATOM     33  H6  UNK     1       4.801  38.349 236.539  1.00  0.00     0.210 HD
ATOM     34  N4  UNK     1       3.675  37.121 239.308  1.00  0.00    -0.268 N 
ATOM     35  H23 UNK     1       3.615  39.018 238.574  1.00  0.00     0.210 HD
ATOM     36  H4  UNK     1       3.254  37.154 240.236  1.00  0.00     0.190 HD
ENDBRANCH  27  28
ENDBRANCH   6  22
TORSDOF 9
ENDMDL
MODEL 4
REMARK VINA RESULT:      -6.3      3.108      4.277
REMARK  9 active torsions:
REMARK  status: ('A' for Active; 'I' for Inactive)
REMARK    1  A    between atoms: C2_3  and  C3_4 
REMARK    2  A    between atoms: C3_4  and  O1_5 
REMARK    3  A    between atoms: C4_8  and  C5_9 
REMARK    4  A    between atoms: C5_9  and  C6_10 
REMARK    5  A    between atoms: C6_10  and  C7_11 
REMARK    6  A    between atoms: N2_13  and  C9_14 
REMARK    7  A    between atoms: C9_14  and  C10_15 
REMARK    8  A    between atoms: C15_20  and  C16_21 
REMARK    9  A    between atoms: C21_26  and  C22_27 
ROOT
ATOM      1  C10 UNK     1      -0.340  36.000 234.741  1.00  0.00    -0.040 C 
ATOM      2  C11 UNK     1       0.381  34.813 234.095  1.00  0.00     0.010 C 
ATOM      3  C12 UNK     1       1.360  34.020 234.981  1.00  0.00     0.013 C 
ATOM      4  C13 UNK     1      -0.413  36.250 236.213  1.00  0.00     0.010 C 
ATOM      5  C14 UNK     1       0.548  35.492 237.055  1.00  0.00     0.013 C 
ATOM      6  C15 UNK     1       1.518  34.506 236.441  1.00  0.00    -0.025 C 
ENDROOT
BRANCH   1   7
ATOM      7  C9  UNK     1      -1.496  36.729 234.075  1.00  0.00     0.169 C 
BRANCH   7   8
ATOM      8  N2  UNK     1      -2.160  35.686 233.403  1.00  0.00    -0.331 N 
ATOM      9  C2  UNK     1      -2.336  35.800 231.996  1.00  0.00     0.075 C 
ATOM     10  C1  UNK     1      -3.129  34.484 231.689  1.00  0.00     0.130 C 
ATOM     11 Cl1  UNK     1      -3.399  33.788 230.094  1.00  0.00    -0.062 Cl
ATOM     12  N1  UNK     1      -3.371  33.739 232.908  1.00  0.00    -0.335 N 
ATOM     13  C4  UNK     1      -2.991  34.620 233.974  1.00  0.00     0.085 C 
ATOM     14  H1  UNK     1      -3.735  32.789 232.990  1.00  0.00     0.168 HD
BRANCH   9  15
ATOM     15  C3  UNK     1      -1.544  36.689 231.036  1.00  0.00     0.224 C 
BRANCH  15  16
ATOM     16  O1  UNK     1      -2.359  37.468 230.170  1.00  0.00    -0.395 OA
ATOM     17  H3  UNK     1      -2.449  38.345 230.523  1.00  0.00     0.209 HD
ENDBRANCH  15  16
ENDBRANCH   9  15
BRANCH  13  18
ATOM     18  C5  UNK     1      -3.109  34.156 235.417  1.00  0.00     0.076 C 
BRANCH  18  19
ATOM     19  C6  UNK     1      -2.330  32.853 235.653  1.00  0.00     0.007 C 
BRANCH  19  20
ATOM     20  C7  UNK     1      -1.753  32.663 237.060  1.00  0.00    -0.004 C 
ATOM     21  C8  UNK     1      -2.395  33.582 238.066  1.00  0.00     0.005 C 
ENDBRANCH  19  20
ENDBRANCH  18  19
ENDBRANCH  13  18
ENDBRANCH   7   8
ENDBRANCH   1   7
BRANCH   6  22
ATOM     22  C16 UNK     1       2.332  33.701 237.456  1.00  0.00    -0.012 C 
ATOM     23  C17 UNK     1       2.083  32.229 237.435  1.00  0.00     0.013 C 
ATOM     24  C18 UNK     1       2.942  31.364 238.312  1.00  0.00     0.001 C 
ATOM     25  C19 UNK     1       4.142  31.948 239.021  1.00  0.00     0.001 C 
ATOM     26  C20 UNK     1       4.487  33.418 238.922  1.00  0.00     0.016 C 
ATOM     27  C21 UNK     1       3.672  34.224 237.929  1.00  0.00     0.022 C 
BRANCH  27  28
ATOM     28  C22 UNK     1       3.909  35.728 237.928  1.00  0.00     0.148 A 
ATOM     29  N3  UNK     1       4.591  36.428 236.854  1.00  0.00    -0.268 N 
ATOM     30  N6  UNK     1       4.673  37.634 237.362  1.00  0.00    -0.227 N 
ATOM     31  H3  UNK     1       4.917  36.078 235.953  1.00  0.00     0.190 HD
ATOM     32  N5  UNK     1       4.196  37.670 238.623  1.00  0.00    -0.227 N 
ATOM     33  H6  UNK     1       5.048  38.443 236.866  1.00  0.00     0.210 HD
ATOM     34  N4  UNK     1       3.742  36.531 239.119  1.00  0.00    -0.268 N 
ATOM     35  H23 UNK     1       4.186  38.516 239.156  1.00  0.00     0.210 HD
ATOM     36  H4  UNK     1       3.388  36.294 240.046  1.00  0.00     0.190 HD
ENDBRANCH  27  28
ENDBRANCH   6  22
TORSDOF 9
ENDMDL
MODEL 5
REMARK VINA RESULT:      -6.1      3.481      8.416
REMARK  9 active torsions:
REMARK  status: ('A' for Active; 'I' for Inactive)
REMARK    1  A    between atoms: C2_3  and  C3_4 
REMARK    2  A    between atoms: C3_4  and  O1_5 
REMARK    3  A    between atoms: C4_8  and  C5_9 
REMARK    4  A    between atoms: C5_9  and  C6_10 
REMARK    5  A    between atoms: C6_10  and  C7_11 
REMARK    6  A    between atoms: N2_13  and  C9_14 
REMARK    7  A    between atoms: C9_14  and  C10_15 
REMARK    8  A    between atoms: C15_20  and  C16_21 
REMARK    9  A    between atoms: C21_26  and  C22_27 
ROOT
ATOM      1  C10 UNK     1       0.515  34.479 234.870  1.00  0.00    -0.040 C 
ATOM      2  C11 UNK     1       1.259  35.399 233.898  1.00  0.00     0.010 C 
ATOM      3  C12 UNK     1       1.199  35.035 232.403  1.00  0.00     0.013 C 
ATOM      4  C13 UNK     1      -0.506  33.464 234.466  1.00  0.00     0.010 C 
ATOM      5  C14 UNK     1      -0.542  33.109 233.025  1.00  0.00     0.013 C 
ATOM      6  C15 UNK     1       0.391  33.769 232.032  1.00  0.00    -0.025 C 
ENDROOT
BRANCH   1   7
ATOM      7  C9  UNK     1       0.287  34.829 236.332  1.00  0.00     0.169 C 
BRANCH   7   8
ATOM      8  N2  UNK     1       1.600  34.999 236.808  1.00  0.00    -0.331 N 
ATOM      9  C2  UNK     1       2.063  36.325 237.038  1.00  0.00     0.075 C 
ATOM     10  C1  UNK     1       3.533  36.048 237.505  1.00  0.00     0.130 C 
ATOM     11 Cl1  UNK     1       4.607  37.207 238.282  1.00  0.00    -0.062 Cl
ATOM     12  N1  UNK     1       3.814  34.627 237.486  1.00  0.00    -0.335 N 
ATOM     13  C4  UNK     1       2.698  34.026 236.815  1.00  0.00     0.085 C 
ATOM     14  H1  UNK     1       4.633  34.153 237.871  1.00  0.00     0.168 HD
BRANCH   9  15
ATOM     15  C3  UNK     1       1.211  37.577 237.244  1.00  0.00     0.224 C 
BRANCH  15  16
ATOM     16  O1  UNK     1       0.908  38.270 236.040  1.00  0.00    -0.395 OA
ATOM     17  H3  UNK     1       1.161  37.738 235.295  1.00  0.00     0.209 HD
ENDBRANCH  15  16
ENDBRANCH   9  15
BRANCH  13  18
ATOM     18  C5  UNK     1       2.654  32.519 236.618  1.00  0.00     0.076 C 
BRANCH  18  19
ATOM     19  C6  UNK     1       3.350  32.104 235.312  1.00  0.00     0.007 C 
BRANCH  19  20
ATOM     20  C7  UNK     1       2.503  31.283 234.334  1.00  0.00    -0.004 C 
ATOM     21  C8  UNK     1       1.494  30.418 235.043  1.00  0.00     0.005 C 
ENDBRANCH  19  20
ENDBRANCH  18  19
ENDBRANCH  13  18
ENDBRANCH   7   8
ENDBRANCH   1   7
BRANCH   6  22
ATOM     22  C16 UNK     1       0.125  33.404 230.571  1.00  0.00    -0.012 C 
ATOM     23  C17 UNK     1       0.641  32.066 230.154  1.00  0.00     0.013 C 
ATOM     24  C18 UNK     1       0.301  31.588 228.771  1.00  0.00     0.001 C 
ATOM     25  C19 UNK     1      -0.696  32.345 227.925  1.00  0.00     0.001 C 
ATOM     26  C20 UNK     1      -1.339  33.627 228.408  1.00  0.00     0.016 C 
ATOM     27  C21 UNK     1      -1.065  34.002 229.851  1.00  0.00     0.022 C 
BRANCH  27  28
ATOM     28  C22 UNK     1      -1.584  35.360 230.303  1.00  0.00     0.148 A 
ATOM     29  N3  UNK     1      -2.813  35.536 231.056  1.00  0.00    -0.268 N 
ATOM     30  N6  UNK     1      -2.900  36.844 231.080  1.00  0.00    -0.227 N 
ATOM     31  H3  UNK     1      -3.437  34.836 231.456  1.00  0.00     0.190 HD
ATOM     32  N5  UNK     1      -1.914  37.416 230.358  1.00  0.00    -0.227 N 
ATOM     33  H6  UNK     1      -3.621  37.364 231.580  1.00  0.00     0.210 HD
ATOM     34  N4  UNK     1      -1.056  36.597 229.770  1.00  0.00    -0.268 N 
ATOM     35  H23 UNK     1      -1.835  38.409 230.271  1.00  0.00     0.210 HD
ATOM     36  H4  UNK     1      -0.274  36.780 229.142  1.00  0.00     0.190 HD
ENDBRANCH  27  28
ENDBRANCH   6  22
TORSDOF 9
ENDMDL
MODEL 6
REMARK VINA RESULT:      -6.1      4.307      8.699
REMARK  9 active torsions:
REMARK  status: ('A' for Active; 'I' for Inactive)
REMARK    1  A    between atoms: C2_3  and  C3_4 
REMARK    2  A    between atoms: C3_4  and  O1_5 
REMARK    3  A    between atoms: C4_8  and  C5_9 
REMARK    4  A    between atoms: C5_9  and  C6_10 
REMARK    5  A    between atoms: C6_10  and  C7_11 
REMARK    6  A    between atoms: N2_13  and  C9_14 
REMARK    7  A    between atoms: C9_14  and  C10_15 
REMARK    8  A    between atoms: C15_20  and  C16_21 
REMARK    9  A    between atoms: C21_26  and  C22_27 
ROOT
ATOM      1  C10 UNK     1       0.726  33.827 233.179  1.00  0.00    -0.040 C 
ATOM      2  C11 UNK     1       0.525  32.501 232.439  1.00  0.00     0.010 C 
ATOM      3  C12 UNK     1       0.430  32.562 230.903  1.00  0.00     0.013 C 
ATOM      4  C13 UNK     1       1.148  35.106 232.530  1.00  0.00     0.010 C 
ATOM      5  C14 UNK     1       1.036  35.158 231.050  1.00  0.00     0.013 C 
ATOM      6  C15 UNK     1       0.546  33.964 230.259  1.00  0.00    -0.025 C 
ENDROOT
BRANCH   1   7
ATOM      7  C9  UNK     1       1.068  33.906 234.658  1.00  0.00     0.169 C 
BRANCH   7   8
ATOM      8  N2  UNK     1       0.092  34.796 235.144  1.00  0.00    -0.331 N 
ATOM      9  C2  UNK     1       0.527  35.919 235.902  1.00  0.00     0.075 C 
ATOM     10  C1  UNK     1      -0.845  36.585 236.258  1.00  0.00     0.130 C 
ATOM     11 Cl1  UNK     1      -1.070  38.210 236.899  1.00  0.00    -0.062 Cl
ATOM     12  N1  UNK     1      -1.944  35.808 235.720  1.00  0.00    -0.335 N 
ATOM     13  C4  UNK     1      -1.355  34.584 235.260  1.00  0.00     0.085 C 
ATOM     14  H1  UNK     1      -2.927  36.076 235.676  1.00  0.00     0.168 HD
BRANCH   9  15
ATOM     15  C3  UNK     1       1.926  36.536 235.916  1.00  0.00     0.224 C 
BRANCH  15  16
ATOM     16  O1  UNK     1       2.140  37.499 234.891  1.00  0.00    -0.395 OA
ATOM     17  H3  UNK     1       1.350  37.590 234.373  1.00  0.00     0.209 HD
ENDBRANCH  15  16
ENDBRANCH   9  15
BRANCH  13  18
ATOM     18  C5  UNK     1      -2.229  33.516 234.621  1.00  0.00     0.076 C 
BRANCH  18  19
ATOM     19  C6  UNK     1      -3.228  34.132 233.628  1.00  0.00     0.007 C 
BRANCH  19  20
ATOM     20  C7  UNK     1      -2.658  34.517 232.259  1.00  0.00    -0.004 C 
ATOM     21  C8  UNK     1      -2.583  36.010 232.073  1.00  0.00     0.005 C 
ENDBRANCH  19  20
ENDBRANCH  18  19
ENDBRANCH  13  18
ENDBRANCH   7   8
ENDBRANCH   1   7
BRANCH   6  22
ATOM     22  C16 UNK     1       0.631  34.129 228.741  1.00  0.00    -0.012 C 
ATOM     23  C17 UNK     1       2.008  34.020 228.174  1.00  0.00     0.013 C 
ATOM     24  C18 UNK     1       2.150  34.041 226.679  1.00  0.00     0.001 C 
ATOM     25  C19 UNK     1       0.927  33.965 225.795  1.00  0.00     0.001 C 
ATOM     26  C20 UNK     1      -0.471  33.922 226.372  1.00  0.00     0.016 C 
ATOM     27  C21 UNK     1      -0.562  33.775 227.878  1.00  0.00     0.022 C 
BRANCH  27  28
ATOM     28  C22 UNK     1      -1.955  33.880 228.482  1.00  0.00     0.148 A 
ATOM     29  N3  UNK     1      -2.750  32.726 228.861  1.00  0.00    -0.268 N 
ATOM     30  N6  UNK     1      -3.882  33.303 229.183  1.00  0.00    -0.227 N 
ATOM     31  H3  UNK     1      -2.498  31.737 228.874  1.00  0.00     0.190 HD
ATOM     32  N5  UNK     1      -3.841  34.631 228.947  1.00  0.00    -0.227 N 
ATOM     33  H6  UNK     1      -4.691  32.812 229.564  1.00  0.00     0.210 HD
ATOM     34  N4  UNK     1      -2.713  35.112 228.452  1.00  0.00    -0.268 N 
ATOM     35  H23 UNK     1      -4.625  35.222 229.138  1.00  0.00     0.210 HD
ATOM     36  H4  UNK     1      -2.458  36.051 228.147  1.00  0.00     0.190 HD
ENDBRANCH  27  28
ENDBRANCH   6  22
TORSDOF 9
ENDMDL
MODEL 7
REMARK VINA RESULT:      -6.1      3.591      5.456
REMARK  9 active torsions:
REMARK  status: ('A' for Active; 'I' for Inactive)
REMARK    1  A    between atoms: C2_3  and  C3_4 
REMARK    2  A    between atoms: C3_4  and  O1_5 
REMARK    3  A    between atoms: C4_8  and  C5_9 
REMARK    4  A    between atoms: C5_9  and  C6_10 
REMARK    5  A    between atoms: C6_10  and  C7_11 
REMARK    6  A    between atoms: N2_13  and  C9_14 
REMARK    7  A    between atoms: C9_14  and  C10_15 
REMARK    8  A    between atoms: C15_20  and  C16_21 
REMARK    9  A    between atoms: C21_26  and  C22_27 
ROOT
ATOM      1  C10 UNK     1       0.121  34.438 231.708  1.00  0.00    -0.040 C 
ATOM      2  C11 UNK     1       1.149  35.542 231.977  1.00  0.00     0.010 C 
ATOM      3  C12 UNK     1       1.802  35.569 233.371  1.00  0.00     0.013 C 
ATOM      4  C13 UNK     1      -0.060  33.222 232.558  1.00  0.00     0.010 C 
ATOM      5  C14 UNK     1       0.560  33.266 233.907  1.00  0.00     0.013 C 
ATOM      6  C15 UNK     1       1.350  34.473 234.366  1.00  0.00    -0.025 C 
ENDROOT
BRANCH   1   7
ATOM      7  C9  UNK     1      -0.431  34.140 230.324  1.00  0.00     0.169 C 
BRANCH   7   8
ATOM      8  N2  UNK     1      -1.223  35.275 230.067  1.00  0.00    -0.331 N 
ATOM      9  C2  UNK     1      -0.708  36.267 229.187  1.00  0.00     0.075 C 
ATOM     10  C1  UNK     1      -1.862  37.325 229.224  1.00  0.00     0.130 C 
ATOM     11 Cl1  UNK     1      -2.067  38.672 228.108  1.00  0.00    -0.062 Cl
ATOM     12  N1  UNK     1      -2.920  36.894 230.116  1.00  0.00    -0.335 N 
ATOM     13  C4  UNK     1      -2.390  35.758 230.814  1.00  0.00     0.085 C 
ATOM     14  H1  UNK     1      -3.845  37.310 230.225  1.00  0.00     0.168 HD
BRANCH   9  15
ATOM     15  C3  UNK     1       0.401  36.093 228.148  1.00  0.00     0.224 C 
BRANCH  15  16
ATOM     16  O1  UNK     1       1.094  37.295 227.840  1.00  0.00    -0.395 OA
ATOM     17  H3  UNK     1       0.639  38.032 228.230  1.00  0.00     0.209 HD
ENDBRANCH  15  16
ENDBRANCH   9  15
BRANCH  13  18
ATOM     18  C5  UNK     1      -3.244  35.036 231.844  1.00  0.00     0.076 C 
BRANCH  18  19
ATOM     19  C6  UNK     1      -3.085  35.659 233.239  1.00  0.00     0.007 C 
BRANCH  19  20
ATOM     20  C7  UNK     1      -2.859  34.673 234.390  1.00  0.00    -0.004 C 
ATOM     21  C8  UNK     1      -3.680  33.420 234.235  1.00  0.00     0.005 C 
ENDBRANCH  19  20
ENDBRANCH  18  19
ENDBRANCH  13  18
ENDBRANCH   7   8
ENDBRANCH   1   7
BRANCH   6  22
ATOM     22  C16 UNK     1       2.047  34.300 235.716  1.00  0.00    -0.012 C 
ATOM     23  C17 UNK     1       3.160  33.304 235.726  1.00  0.00     0.013 C 
ATOM     24  C18 UNK     1       3.973  33.179 236.983  1.00  0.00     0.001 C 
ATOM     25  C19 UNK     1       3.795  34.170 238.109  1.00  0.00     0.001 C 
ATOM     26  C20 UNK     1       2.767  35.278 238.039  1.00  0.00     0.016 C 
ATOM     27  C21 UNK     1       2.062  35.444 236.707  1.00  0.00     0.022 C 
BRANCH  27  28
ATOM     28  C22 UNK     1       0.924  36.455 236.670  1.00  0.00     0.148 A 
ATOM     29  N3  UNK     1      -0.474  36.091 236.809  1.00  0.00    -0.268 N 
ATOM     30  N6  UNK     1      -1.053  37.244 236.573  1.00  0.00    -0.227 N 
ATOM     31  H3  UNK     1      -0.892  35.187 237.031  1.00  0.00     0.190 HD
ATOM     32  N5  UNK     1      -0.149  38.186 236.234  1.00  0.00    -0.227 N 
ATOM     33  H6  UNK     1      -2.057  37.407 236.637  1.00  0.00     0.210 HD
ATOM     34  N4  UNK     1       1.118  37.809 236.198  1.00  0.00    -0.268 N 
ATOM     35  H23 UNK     1      -0.424  39.123 236.020  1.00  0.00     0.210 HD
ATOM     36  H4  UNK     1       1.963  38.312 235.925  1.00  0.00     0.190 HD
ENDBRANCH  27  28
ENDBRANCH   6  22
TORSDOF 9
ENDMDL
MODEL 8
REMARK VINA RESULT:      -6.1      3.529      6.356
REMARK  9 active torsions:
REMARK  status: ('A' for Active; 'I' for Inactive)
REMARK    1  A    between atoms: C2_3  and  C3_4 
REMARK    2  A    between atoms: C3_4  and  O1_5 
REMARK    3  A    between atoms: C4_8  and  C5_9 
REMARK    4  A    between atoms: C5_9  and  C6_10 
REMARK    5  A    between atoms: C6_10  and  C7_11 
REMARK    6  A    between atoms: N2_13  and  C9_14 
REMARK    7  A    between atoms: C9_14  and  C10_15 
REMARK    8  A    between atoms: C15_20  and  C16_21 
REMARK    9  A    between atoms: C21_26  and  C22_27 
ROOT
ATOM      1  C10 UNK     1       0.473  33.931 231.535  1.00  0.00    -0.040 C 
ATOM      2  C11 UNK     1       1.146  35.267 231.865  1.00  0.00     0.010 C 
ATOM      3  C12 UNK     1       1.682  35.448 233.297  1.00  0.00     0.013 C 
ATOM      4  C13 UNK     1       0.575  32.699 232.374  1.00  0.00     0.010 C 
ATOM      5  C14 UNK     1       1.076  32.889 233.759  1.00  0.00     0.013 C 
ATOM      6  C15 UNK     1       1.482  34.257 234.265  1.00  0.00    -0.025 C 
ENDROOT
BRANCH   1   7
ATOM      7  C9  UNK     1       0.107  33.516 230.119  1.00  0.00     0.169 C 
BRANCH   7   8
ATOM      8  N2  UNK     1      -0.201  34.749 229.515  1.00  0.00    -0.331 N 
ATOM      9  C2  UNK     1      -1.560  35.170 229.507  1.00  0.00     0.075 C 
ATOM     10  C1  UNK     1      -1.446  36.524 228.727  1.00  0.00     0.130 C 
ATOM     11 Cl1  UNK     1      -2.687  37.769 228.629  1.00  0.00    -0.062 Cl
ATOM     12  N1  UNK     1      -0.074  36.769 228.329  1.00  0.00    -0.335 N 
ATOM     13  C4  UNK     1       0.625  35.546 228.602  1.00  0.00     0.085 C 
ATOM     14  H1  UNK     1       0.313  37.628 227.938  1.00  0.00     0.168 HD
BRANCH   9  15
ATOM     15  C3  UNK     1      -2.683  34.683 230.423  1.00  0.00     0.224 C 
BRANCH  15  16
ATOM     16  O1  UNK     1      -3.044  35.614 231.435  1.00  0.00    -0.395 OA
ATOM     17  H3  UNK     1      -2.407  35.580 232.139  1.00  0.00     0.209 HD
ENDBRANCH  15  16
ENDBRANCH   9  15
BRANCH  13  18
ATOM     18  C5  UNK     1       2.113  35.443 228.307  1.00  0.00     0.076 C 
BRANCH  18  19
ATOM     19  C6  UNK     1       2.405  34.335 227.282  1.00  0.00     0.007 C 
BRANCH  19  20
ATOM     20  C7  UNK     1       1.756  34.511 225.905  1.00  0.00    -0.004 C 
ATOM     21  C8  UNK     1       0.801  33.393 225.579  1.00  0.00     0.005 C 
ENDBRANCH  19  20
ENDBRANCH  18  19
ENDBRANCH  13  18
ENDBRANCH   7   8
ENDBRANCH   1   7
BRANCH   6  22
ATOM     22  C16 UNK     1       2.116  34.258 235.656  1.00  0.00    -0.012 C 
ATOM     23  C17 UNK     1       3.294  33.353 235.811  1.00  0.00     0.013 C 
ATOM     24  C18 UNK     1       4.044  33.401 237.112  1.00  0.00     0.001 C 
ATOM     25  C19 UNK     1       3.738  34.474 238.130  1.00  0.00     0.001 C 
ATOM     26  C20 UNK     1       2.641  35.492 237.909  1.00  0.00     0.016 C 
ATOM     27  C21 UNK     1       1.998  35.485 236.536  1.00  0.00     0.022 C 
BRANCH  27  28
ATOM     28  C22 UNK     1       0.796  36.401 236.350  1.00  0.00     0.148 A 
ATOM     29  N3  UNK     1       0.910  37.822 236.073  1.00  0.00    -0.268 N 
ATOM     30  N6  UNK     1      -0.347  38.186 236.139  1.00  0.00    -0.227 N 
ATOM     31  H3  UNK     1       1.741  38.383 235.880  1.00  0.00     0.190 HD
ATOM     32  N5  UNK     1      -1.138  37.156 236.505  1.00  0.00    -0.227 N 
ATOM     33  H6  UNK     1      -0.685  39.128 235.940  1.00  0.00     0.210 HD
ATOM     34  N4  UNK     1      -0.541  35.997 236.726  1.00  0.00    -0.268 N 
ATOM     35  H23 UNK     1      -2.127  37.264 236.604  1.00  0.00     0.210 HD
ATOM     36  H4  UNK     1      -0.906  35.104 237.055  1.00  0.00     0.190 HD
ENDBRANCH  27  28
ENDBRANCH   6  22
TORSDOF 9
ENDMDL
MODEL 9
REMARK VINA RESULT:      -5.9      4.087      7.450
REMARK  9 active torsions:
REMARK  status: ('A' for Active; 'I' for Inactive)
REMARK    1  A    between atoms: C2_3  and  C3_4 
REMARK    2  A    between atoms: C3_4  and  O1_5 
REMARK    3  A    between atoms: C4_8  and  C5_9 
REMARK    4  A    between atoms: C5_9  and  C6_10 
REMARK    5  A    between atoms: C6_10  and  C7_11 
REMARK    6  A    between atoms: N2_13  and  C9_14 
REMARK    7  A    between atoms: C9_14  and  C10_15 
REMARK    8  A    between atoms: C15_20  and  C16_21 
REMARK    9  A    between atoms: C21_26  and  C22_27 
ROOT
ATOM      1  C10 UNK     1       1.365  34.466 235.888  1.00  0.00    -0.040 C 
ATOM      2  C11 UNK     1       0.470  35.080 236.969  1.00  0.00     0.010 C 
ATOM      3  C12 UNK     1      -0.978  34.564 237.057  1.00  0.00     0.013 C 
ATOM      4  C13 UNK     1       1.053  33.210 235.140  1.00  0.00     0.010 C 
ATOM      5  C14 UNK     1      -0.351  32.732 235.219  1.00  0.00     0.013 C 
ATOM      6  C15 UNK     1      -1.386  33.473 236.039  1.00  0.00    -0.025 C 
ENDROOT
BRANCH   1   7
ATOM      7  C9  UNK     1       2.866  34.699 235.825  1.00  0.00     0.169 C 
BRANCH   7   8
ATOM      8  N2  UNK     1       3.239  34.617 237.180  1.00  0.00    -0.331 N 
ATOM      9  C2  UNK     1       3.778  35.779 237.798  1.00  0.00     0.075 C 
ATOM     10  C1  UNK     1       4.077  35.237 239.237  1.00  0.00     0.130 C 
ATOM     11 Cl1  UNK     1       4.448  36.215 240.654  1.00  0.00    -0.062 Cl
ATOM     12  N1  UNK     1       3.725  33.835 239.337  1.00  0.00    -0.335 N 
ATOM     13  C4  UNK     1       3.452  33.415 237.993  1.00  0.00     0.085 C 
ATOM     14  H1  UNK     1       3.681  33.267 240.184  1.00  0.00     0.168 HD
BRANCH   9  15
ATOM     15  C3  UNK     1       3.628  37.227 237.331  1.00  0.00     0.224 C 
BRANCH  15  16
ATOM     16  O1  UNK     1       4.847  37.960 237.328  1.00  0.00    -0.395 OA
ATOM     17  H3  UNK     1       5.430  37.605 237.988  1.00  0.00     0.209 HD
ENDBRANCH  15  16
ENDBRANCH   9  15
BRANCH  13  18
ATOM     18  C5  UNK     1       3.038  31.977 237.719  1.00  0.00     0.076 C 
BRANCH  18  19
ATOM     19  C6  UNK     1       4.253  31.035 237.723  1.00  0.00     0.007 C 
BRANCH  19  20
ATOM     20  C7  UNK     1       5.043  30.958 236.412  1.00  0.00    -0.004 C 
ATOM     21  C8  UNK     1       4.165  31.159 235.205  1.00  0.00     0.005 C 
ENDBRANCH  19  20
ENDBRANCH  18  19
ENDBRANCH  13  18
ENDBRANCH   7   8
ENDBRANCH   1   7
BRANCH   6  22
ATOM     22  C16 UNK     1      -2.740  32.770 236.137  1.00  0.00    -0.012 C 
ATOM     23  C17 UNK     1      -3.421  32.532 234.829  1.00  0.00     0.013 C 
ATOM     24  C18 UNK     1      -4.692  31.730 234.840  1.00  0.00     0.001 C 
ATOM     25  C19 UNK     1      -5.137  31.023 236.099  1.00  0.00     0.001 C 
ATOM     26  C20 UNK     1      -4.363  31.139 237.394  1.00  0.00     0.016 C 
ATOM     27  C21 UNK     1      -3.027  31.850 237.305  1.00  0.00     0.022 C 
BRANCH  27  28
ATOM     28  C22 UNK     1      -2.310  32.102 238.624  1.00  0.00     0.148 A 
ATOM     29  N3  UNK     1      -1.102  31.403 239.023  1.00  0.00    -0.268 N 
ATOM     30  N6  UNK     1      -0.956  31.844 240.249  1.00  0.00    -0.227 N 
ATOM     31  H3  UNK     1      -0.524  30.748 238.495  1.00  0.00     0.190 HD
ATOM     32  N5  UNK     1      -1.986  32.638 240.610  1.00  0.00    -0.227 N 
ATOM     33  H6  UNK     1      -0.167  31.617 240.853  1.00  0.00     0.210 HD
ATOM     34  N4  UNK     1      -2.932  32.834 239.707  1.00  0.00    -0.268 N 
ATOM     35  H23 UNK     1      -2.031  33.058 241.517  1.00  0.00     0.210 HD
ATOM     36  H4  UNK     1      -3.816  33.339 239.756  1.00  0.00     0.190 HD
ENDBRANCH  27  28
ENDBRANCH   6  22
TORSDOF 9
ENDMDL
