MODEL 1
REMARK VINA RESULT:      -6.3      0.000      0.000
REMARK  5 active torsions:
REMARK  status: ('A' for Active; 'I' for Inactive)
REMARK    1  A    between atoms: O1_1  and  C1_2 
REMARK    2  A    between atoms: C1_2  and  C2_3 
REMARK    3  A    between atoms: C1_2  and  C11_13 
REMARK    4  A    between atoms: C6_8  and  C7_9 
REMARK    5  A    between atoms: C19_23  and  O2_24 
ROOT
ATOM      1  C11 UNK     1      -2.326  37.723 228.749  1.00  0.00    -0.014 A 
ATOM      2  C12 UNK     1      -3.407  36.954 228.401  1.00  0.00     0.027 A 
ATOM      3  C13 UNK     1      -4.238  37.357 227.369  1.00  0.00     0.089 A 
ATOM      4  N2  UNK     1      -4.071  38.458 226.654  1.00  0.00    -0.365 N 
ATOM      5  H2  UNK     1      -4.707  38.703 225.895  1.00  0.00     0.165 HD
ATOM      6  C14 UNK     1      -3.001  39.256 226.978  1.00  0.00     0.043 A 
ATOM      7  C15 UNK     1      -2.105  38.941 228.030  1.00  0.00     0.002 A 
ATOM      8  C16 UNK     1      -1.067  39.856 228.334  1.00  0.00     0.051 A 
ATOM      9  C17 UNK     1      -2.810  40.459 226.252  1.00  0.00     0.033 A 
ATOM     10  C18 UNK     1      -1.793  41.312 226.570  1.00  0.00     0.039 A 
ATOM     11  C19 UNK     1      -0.926  41.014 227.618  1.00  0.00     0.069 A 
ENDROOT
BRANCH   1  12
ATOM     12  C1  UNK     1      -1.372  37.260 229.839  1.00  0.00     0.185 C 
BRANCH  12  13
ATOM     13  O1  UNK     1      -2.019  37.201 231.105  1.00  0.00    -0.389 OA
ATOM     14  H1  UNK     1      -2.596  36.446 231.131  1.00  0.00     0.210 HD
ENDBRANCH  12  13
BRANCH  12  15
ATOM     15  C2  UNK     1      -0.791  35.877 229.477  1.00  0.00     0.256 C 
ATOM     16  N1  UNK     1      -0.300  35.799 228.085  1.00  0.00     0.096 N 
ATOM     17  C3  UNK     1       1.067  36.334 227.987  1.00  0.00     0.273 C 
ATOM     18  C5  UNK     1      -0.256  34.375 227.713  1.00  0.00     0.282 C 
ATOM     19  C4  UNK     1       2.061  35.453 228.743  1.00  0.00     0.035 C 
ATOM     20  C9  UNK     1       1.268  34.513 229.646  1.00  0.00    -0.001 C 
ATOM     21  C6  UNK     1       0.513  33.523 228.746  1.00  0.00     0.040 C 
ATOM     22  C10 UNK     1       0.267  35.347 230.451  1.00  0.00     0.044 C 
BRANCH  21  23
ATOM     23  C7  UNK     1      -0.387  32.599 229.508  1.00  0.00    -0.030 C 
ATOM     24  C8  UNK     1      -0.023  31.576 230.251  1.00  0.00     0.007 C 
ENDBRANCH  21  23
ENDBRANCH  12  15
ENDBRANCH   1  12
BRANCH  11  25
ATOM     25  O2  UNK     1       0.051  41.929 227.913  1.00  0.00    -0.356 OA
ATOM     26  C20 UNK     1       1.126  41.508 228.741  1.00  0.00     0.210 C 
ENDBRANCH  11  25
TORSDOF 5
ENDMDL
MODEL 2
REMARK VINA RESULT:      -6.2      6.959     10.222
REMARK  5 active torsions:
REMARK  status: ('A' for Active; 'I' for Inactive)
REMARK    1  A    between atoms: O1_1  and  C1_2 
REMARK    2  A    between atoms: C1_2  and  C2_3 
REMARK    3  A    between atoms: C1_2  and  C11_13 
REMARK    4  A    between atoms: C6_8  and  C7_9 
REMARK    5  A    between atoms: C19_23  and  O2_24 
ROOT
ATOM      1  C11 UNK     1       2.282  36.650 237.164  1.00  0.00    -0.014 A 
ATOM      2  C12 UNK     1       3.259  37.593 237.357  1.00  0.00     0.027 A 
ATOM      3  C13 UNK     1       4.383  37.280 238.104  1.00  0.00     0.089 A 
ATOM      4  N2  UNK     1       4.612  36.104 238.663  1.00  0.00    -0.365 N 
ATOM      5  H2  UNK     1       5.463  35.923 239.195  1.00  0.00     0.165 HD
ATOM      6  C14 UNK     1       3.652  35.136 238.496  1.00  0.00     0.043 A 
ATOM      7  C15 UNK     1       2.459  35.363 237.766  1.00  0.00     0.002 A 
ATOM      8  C16 UNK     1       1.496  34.326 237.700  1.00  0.00     0.051 A 
ATOM      9  C17 UNK     1       3.851  33.873 239.107  1.00  0.00     0.033 A 
ATOM     10  C18 UNK     1       2.903  32.894 239.015  1.00  0.00     0.039 A 
ATOM     11  C19 UNK     1       1.721  33.125 238.317  1.00  0.00     0.069 A 
ENDROOT
BRANCH   1  12
ATOM     12  C1  UNK     1       1.073  36.961 236.295  1.00  0.00     0.185 C 
BRANCH  12  13
ATOM     13  O1  UNK     1       1.236  38.194 235.603  1.00  0.00    -0.389 OA
ATOM     14  H1  UNK     1       0.686  38.197 234.828  1.00  0.00     0.210 HD
ENDBRANCH  12  13
BRANCH  12  15
ATOM     15  C2  UNK     1       0.841  35.816 235.288  1.00  0.00     0.256 C 
ATOM     16  N1  UNK     1      -0.587  35.476 235.112  1.00  0.00     0.096 N 
ATOM     17  C3  UNK     1      -1.220  36.381 234.141  1.00  0.00     0.273 C 
ATOM     18  C5  UNK     1      -0.651  34.110 234.567  1.00  0.00     0.282 C 
ATOM     19  C4  UNK     1      -0.651  36.170 232.738  1.00  0.00     0.035 C 
ATOM     20  C9  UNK     1       0.629  35.352 232.865  1.00  0.00    -0.001 C 
ATOM     21  C6  UNK     1       0.239  33.937 233.317  1.00  0.00     0.040 C 
ATOM     22  C10 UNK     1       1.518  36.007 233.926  1.00  0.00     0.044 C 
BRANCH  21  23
ATOM     23  C7  UNK     1       1.420  33.052 233.576  1.00  0.00    -0.030 C 
ATOM     24  C8  UNK     1       1.579  32.221 234.584  1.00  0.00     0.007 C 
ENDBRANCH  21  23
ENDBRANCH  12  15
ENDBRANCH   1  12
BRANCH  11  25
ATOM     25  O2  UNK     1       0.791  32.118 238.294  1.00  0.00    -0.356 OA
ATOM     26  C20 UNK     1      -0.555  32.464 237.998  1.00  0.00     0.210 C 
ENDBRANCH  11  25
TORSDOF 5
ENDMDL
MODEL 3
REMARK VINA RESULT:      -6.2      7.734     11.109
REMARK  5 active torsions:
REMARK  status: ('A' for Active; 'I' for Inactive)
REMARK    1  A    between atoms: O1_1  and  C1_2 
REMARK    2  A    between atoms: C1_2  and  C2_3 
REMARK    3  A    between atoms: C1_2  and  C11_13 
REMARK    4  A    between atoms: C6_8  and  C7_9 
REMARK    5  A    between atoms: C19_23  and  O2_24 
ROOT
ATOM      1  C11 UNK     1       3.547  33.642 236.485  1.00  0.00    -0.014 A 
ATOM      2  C12 UNK     1       3.642  32.664 235.528  1.00  0.00     0.027 A 
ATOM      3  C13 UNK     1       4.224  31.447 235.841  1.00  0.00     0.089 A 
ATOM      4  N2  UNK     1       4.709  31.127 237.030  1.00  0.00    -0.365 N 
ATOM      5  H2  UNK     1       5.118  30.210 237.210  1.00  0.00     0.165 HD
ATOM      6  C14 UNK     1       4.636  32.085 238.012  1.00  0.00     0.043 A 
ATOM      7  C15 UNK     1       4.076  33.367 237.786  1.00  0.00     0.002 A 
ATOM      8  C16 UNK     1       4.102  34.313 238.840  1.00  0.00     0.051 A 
ATOM      9  C17 UNK     1       5.173  31.787 239.289  1.00  0.00     0.033 A 
ATOM     10  C18 UNK     1       5.173  32.723 240.283  1.00  0.00     0.039 A 
ATOM     11  C19 UNK     1       4.643  33.990 240.055  1.00  0.00     0.069 A 
ENDROOT
BRANCH   1  12
ATOM     12  C1  UNK     1       2.854  34.959 236.171  1.00  0.00     0.185 C 
BRANCH  12  13
ATOM     13  O1  UNK     1       3.797  35.999 235.937  1.00  0.00    -0.389 OA
ATOM     14  H1  UNK     1       4.560  35.641 235.499  1.00  0.00     0.210 HD
ENDBRANCH  12  13
BRANCH  12  15
ATOM     15  C2  UNK     1       1.936  34.791 234.943  1.00  0.00     0.256 C 
ATOM     16  N1  UNK     1       0.604  34.246 235.281  1.00  0.00     0.096 N 
ATOM     17  C3  UNK     1      -0.295  35.318 235.734  1.00  0.00     0.273 C 
ATOM     18  C5  UNK     1       0.038  33.670 234.050  1.00  0.00     0.282 C 
ATOM     19  C4  UNK     1      -0.610  36.291 234.598  1.00  0.00     0.035 C 
ATOM     20  C9  UNK     1       0.386  36.041 233.471  1.00  0.00    -0.001 C 
ATOM     21  C6  UNK     1       0.077  34.663 232.868  1.00  0.00     0.040 C 
ATOM     22  C10 UNK     1       1.798  36.041 234.066  1.00  0.00     0.044 C 
BRANCH  21  23
ATOM     23  C7  UNK     1       1.051  34.249 231.807  1.00  0.00    -0.030 C 
ATOM     24  C8  UNK     1       1.269  34.850 230.657  1.00  0.00     0.007 C 
ENDBRANCH  21  23
ENDBRANCH  12  15
ENDBRANCH   1  12
BRANCH  11  25
ATOM     25  O2  UNK     1       4.707  34.898 241.080  1.00  0.00    -0.356 OA
ATOM     26  C20 UNK     1       5.949  35.548 241.314  1.00  0.00     0.210 C 
ENDBRANCH  11  25
TORSDOF 5
ENDMDL
MODEL 4
REMARK VINA RESULT:      -6.1      8.091     10.518
REMARK  5 active torsions:
REMARK  status: ('A' for Active; 'I' for Inactive)
REMARK    1  A    between atoms: O1_1  and  C1_2 
REMARK    2  A    between atoms: C1_2  and  C2_3 
REMARK    3  A    between atoms: C1_2  and  C11_13 
REMARK    4  A    between atoms: C6_8  and  C7_9 
REMARK    5  A    between atoms: C19_23  and  O2_24 
ROOT
ATOM      1  C11 UNK     1       2.518  34.684 236.613  1.00  0.00    -0.014 A 
ATOM      2  C12 UNK     1       3.784  35.133 236.889  1.00  0.00     0.027 A 
ATOM      3  C13 UNK     1       3.985  36.457 237.245  1.00  0.00     0.089 A 
ATOM      4  N2  UNK     1       3.025  37.361 237.355  1.00  0.00    -0.365 N 
ATOM      5  H2  UNK     1       3.227  38.322 237.631  1.00  0.00     0.165 HD
ATOM      6  C14 UNK     1       1.745  36.948 237.080  1.00  0.00     0.043 A 
ATOM      7  C15 UNK     1       1.438  35.621 236.690  1.00  0.00     0.002 A 
ATOM      8  C16 UNK     1       0.097  35.302 236.365  1.00  0.00     0.051 A 
ATOM      9  C17 UNK     1       0.696  37.899 237.158  1.00  0.00     0.033 A 
ATOM     10  C18 UNK     1      -0.587  37.551 236.844  1.00  0.00     0.039 A 
ATOM     11  C19 UNK     1      -0.884  36.253 236.439  1.00  0.00     0.069 A 
ENDROOT
BRANCH   1  12
ATOM     12  C1  UNK     1       2.277  33.219 236.283  1.00  0.00     0.185 C 
BRANCH  12  13
ATOM     13  O1  UNK     1       2.422  32.971 234.889  1.00  0.00    -0.389 OA
ATOM     14  H1  UNK     1       1.637  32.549 234.560  1.00  0.00     0.210 HD
ENDBRANCH  12  13
BRANCH  12  15
ATOM     15  C2  UNK     1       3.254  32.332 237.082  1.00  0.00     0.256 C 
ATOM     16  N1  UNK     1       2.574  31.294 237.885  1.00  0.00     0.096 N 
ATOM     17  C3  UNK     1       2.271  30.115 237.058  1.00  0.00     0.273 C 
ATOM     18  C5  UNK     1       3.505  30.875 238.945  1.00  0.00     0.282 C 
ATOM     19  C4  UNK     1       3.551  29.409 236.613  1.00  0.00     0.035 C 
ATOM     20  C9  UNK     1       4.723  30.351 236.867  1.00  0.00    -0.001 C 
ATOM     21  C6  UNK     1       4.893  30.491 238.387  1.00  0.00     0.040 C 
ATOM     22  C10 UNK     1       4.388  31.715 236.256  1.00  0.00     0.044 C 
BRANCH  21  23
ATOM     23  C7  UNK     1       5.956  31.473 238.776  1.00  0.00    -0.030 C 
ATOM     24  C8  UNK     1       5.918  32.321 239.781  1.00  0.00     0.007 C 
ENDBRANCH  21  23
ENDBRANCH  12  15
ENDBRANCH   1  12
BRANCH  11  25
ATOM     25  O2  UNK     1      -2.183  35.977 236.100  1.00  0.00    -0.356 OA
ATOM     26  C20 UNK     1      -2.419  35.295 234.875  1.00  0.00     0.210 C 
ENDBRANCH  11  25
TORSDOF 5
ENDMDL
MODEL 5
REMARK VINA RESULT:      -6.1      8.319     10.665
REMARK  5 active torsions:
REMARK  status: ('A' for Active; 'I' for Inactive)
REMARK    1  A    between atoms: O1_1  and  C1_2 
REMARK    2  A    between atoms: C1_2  and  C2_3 
REMARK    3  A    between atoms: C1_2  and  C11_13 
REMARK    4  A    between atoms: C6_8  and  C7_9 
REMARK    5  A    between atoms: C19_23  and  O2_24 
ROOT
ATOM      1  C11 UNK     1       1.858  34.480 236.874  1.00  0.00    -0.014 A 
ATOM      2  C12 UNK     1       1.374  34.840 235.643  1.00  0.00     0.027 A 
ATOM      3  C13 UNK     1       1.744  36.052 235.083  1.00  0.00     0.089 A 
ATOM      4  N2  UNK     1       2.561  36.925 235.649  1.00  0.00    -0.365 N 
ATOM      5  H2  UNK     1       2.809  37.800 235.187  1.00  0.00     0.165 HD
ATOM      6  C14 UNK     1       3.061  36.600 236.886  1.00  0.00     0.043 A 
ATOM      7  C15 UNK     1       2.729  35.393 237.550  1.00  0.00     0.002 A 
ATOM      8  C16 UNK     1       3.242  35.172 238.852  1.00  0.00     0.051 A 
ATOM      9  C17 UNK     1       3.917  37.526 237.535  1.00  0.00     0.033 A 
ATOM     10  C18 UNK     1       4.398  37.274 238.787  1.00  0.00     0.039 A 
ATOM     11  C19 UNK     1       4.053  36.099 239.449  1.00  0.00     0.069 A 
ENDROOT
BRANCH   1  12
ATOM     12  C1  UNK     1       1.510  33.125 237.471  1.00  0.00     0.185 C 
BRANCH  12  13
ATOM     13  O1  UNK     1       0.185  32.734 237.131  1.00  0.00    -0.389 OA
ATOM     14  H1  UNK     1      -0.428  33.131 237.739  1.00  0.00     0.210 HD
ENDBRANCH  12  13
BRANCH  12  15
ATOM     15  C2  UNK     1       2.516  32.061 236.985  1.00  0.00     0.256 C 
ATOM     16  N1  UNK     1       1.866  30.857 236.427  1.00  0.00     0.096 N 
ATOM     17  C3  UNK     1       1.500  31.071 235.018  1.00  0.00     0.273 C 
ATOM     18  C5  UNK     1       2.849  29.762 236.477  1.00  0.00     0.282 C 
ATOM     19  C4  UNK     1       2.743  31.218 234.141  1.00  0.00     0.035 C 
ATOM     20  C9  UNK     1       3.941  31.453 235.054  1.00  0.00    -0.001 C 
ATOM     21  C6  UNK     1       4.198  30.156 235.836  1.00  0.00     0.040 C 
ATOM     22  C10 UNK     1       3.593  32.583 236.027  1.00  0.00     0.044 C 
BRANCH  21  23
ATOM     23  C7  UNK     1       5.295  30.283 236.849  1.00  0.00    -0.030 C 
ATOM     24  C8  UNK     1       5.317  29.767 238.059  1.00  0.00     0.007 C 
ENDBRANCH  21  23
ENDBRANCH  12  15
ENDBRANCH   1  12
BRANCH  11  25
ATOM     25  O2  UNK     1       4.536  35.921 240.719  1.00  0.00    -0.356 OA
ATOM     26  C20 UNK     1       5.912  35.595 240.867  1.00  0.00     0.210 C 
ENDBRANCH  11  25
TORSDOF 5
ENDMDL
MODEL 6
REMARK VINA RESULT:      -6.1      7.925     10.461
REMARK  5 active torsions:
REMARK  status: ('A' for Active; 'I' for Inactive)
REMARK    1  A    between atoms: O1_1  and  C1_2 
REMARK    2  A    between atoms: C1_2  and  C2_3 
REMARK    3  A    between atoms: C1_2  and  C11_13 
REMARK    4  A    between atoms: C6_8  and  C7_9 
REMARK    5  A    between atoms: C19_23  and  O2_24 
ROOT
ATOM      1  C11 UNK     1       1.441  35.096 237.129  1.00  0.00    -0.014 A 
ATOM      2  C12 UNK     1       0.828  35.841 236.155  1.00  0.00     0.027 A 
ATOM      3  C13 UNK     1       1.366  37.061 235.778  1.00  0.00     0.089 A 
ATOM      4  N2  UNK     1       2.467  37.588 236.287  1.00  0.00    -0.365 N 
ATOM      5  H2  UNK     1       2.826  38.487 235.965  1.00  0.00     0.165 HD
ATOM      6  C14 UNK     1       3.105  36.871 237.270  1.00  0.00     0.043 A 
ATOM      7  C15 UNK     1       2.624  35.624 237.738  1.00  0.00     0.002 A 
ATOM      8  C16 UNK     1       3.313  34.986 238.800  1.00  0.00     0.051 A 
ATOM      9  C17 UNK     1       4.271  37.421 237.859  1.00  0.00     0.033 A 
ATOM     10  C18 UNK     1       4.912  36.773 238.876  1.00  0.00     0.039 A 
ATOM     11  C19 UNK     1       4.427  35.559 239.351  1.00  0.00     0.069 A 
ENDROOT
BRANCH   1  12
ATOM     12  C1  UNK     1       0.895  33.727 237.508  1.00  0.00     0.185 C 
BRANCH  12  13
ATOM     13  O1  UNK     1      -0.505  33.777 237.755  1.00  0.00    -0.389 OA
ATOM     14  H1  UNK     1      -0.743  34.649 238.048  1.00  0.00     0.210 HD
ENDBRANCH  12  13
BRANCH  12  15
ATOM     15  C2  UNK     1       1.199  32.712 236.387  1.00  0.00     0.256 C 
ATOM     16  N1  UNK     1       2.631  32.360 236.291  1.00  0.00     0.096 N 
ATOM     17  C3  UNK     1       2.972  31.307 237.259  1.00  0.00     0.273 C 
ATOM     18  C5  UNK     1       2.865  31.826 234.939  1.00  0.00     0.282 C 
ATOM     19  C4  UNK     1       2.280  29.990 236.908  1.00  0.00     0.035 C 
ATOM     20  C9  UNK     1       1.188  30.287 235.887  1.00  0.00    -0.001 C 
ATOM     21  C6  UNK     1       1.871  30.701 234.575  1.00  0.00     0.040 C 
ATOM     22  C10 UNK     1       0.336  31.445 236.414  1.00  0.00     0.044 C 
BRANCH  21  23
ATOM     23  C7  UNK     1       0.903  31.118 233.509  1.00  0.00    -0.030 C 
ATOM     24  C8  UNK     1       1.048  32.107 232.654  1.00  0.00     0.007 C 
ENDBRANCH  21  23
ENDBRANCH  12  15
ENDBRANCH   1  12
BRANCH  11  25
ATOM     25  O2  UNK     1       5.092  34.977 240.399  1.00  0.00    -0.356 OA
ATOM     26  C20 UNK     1       6.203  35.672 240.948  1.00  0.00     0.210 C 
ENDBRANCH  11  25
TORSDOF 5
ENDMDL
MODEL 7
REMARK VINA RESULT:      -6.1      7.759     10.449
REMARK  5 active torsions:
REMARK  status: ('A' for Active; 'I' for Inactive)
REMARK    1  A    between atoms: O1_1  and  C1_2 
REMARK    2  A    between atoms: C1_2  and  C2_3 
REMARK    3  A    between atoms: C1_2  and  C11_13 
REMARK    4  A    between atoms: C6_8  and  C7_9 
REMARK    5  A    between atoms: C19_23  and  O2_24 
ROOT
ATOM      1  C11 UNK     1       3.514  34.995 238.431  1.00  0.00    -0.014 A 
ATOM      2  C12 UNK     1       4.651  35.653 238.823  1.00  0.00     0.027 A 
ATOM      3  C13 UNK     1       4.811  36.995 238.520  1.00  0.00     0.089 A 
ATOM      4  N2  UNK     1       3.926  37.731 237.867  1.00  0.00    -0.365 N 
ATOM      5  H2  UNK     1       4.089  38.720 237.679  1.00  0.00     0.165 HD
ATOM      6  C14 UNK     1       2.777  37.103 237.454  1.00  0.00     0.043 A 
ATOM      7  C15 UNK     1       2.528  35.729 237.698  1.00  0.00     0.002 A 
ATOM      8  C16 UNK     1       1.343  35.152 237.178  1.00  0.00     0.051 A 
ATOM      9  C17 UNK     1       1.820  37.853 236.725  1.00  0.00     0.033 A 
ATOM     10  C18 UNK     1       0.686  37.263 236.246  1.00  0.00     0.039 A 
ATOM     11  C19 UNK     1       0.452  35.908 236.466  1.00  0.00     0.069 A 
ENDROOT
BRANCH   1  12
ATOM     12  C1  UNK     1       3.299  33.538 238.812  1.00  0.00     0.185 C 
BRANCH  12  13
ATOM     13  O1  UNK     1       2.203  33.392 239.707  1.00  0.00    -0.389 OA
ATOM     14  H1  UNK     1       1.598  32.745 239.364  1.00  0.00     0.210 HD
ENDBRANCH  12  13
BRANCH  12  15
ATOM     15  C2  UNK     1       3.063  32.692 237.544  1.00  0.00     0.256 C 
ATOM     16  N1  UNK     1       4.311  32.363 236.823  1.00  0.00     0.096 N 
ATOM     17  C3  UNK     1       4.958  31.184 237.419  1.00  0.00     0.273 C 
ATOM     18  C5  UNK     1       3.944  32.025 235.438  1.00  0.00     0.282 C 
ATOM     19  C4  UNK     1       4.113  29.927 237.216  1.00  0.00     0.035 C 
ATOM     20  C9  UNK     1       2.717  30.362 236.782  1.00  0.00    -0.001 C 
ATOM     21  C6  UNK     1       2.828  30.959 235.371  1.00  0.00     0.040 C 
ATOM     22  C10 UNK     1       2.218  31.431 237.759  1.00  0.00     0.044 C 
BRANCH  21  23
ATOM     23  C7  UNK     1       1.534  31.518 234.862  1.00  0.00    -0.030 C 
ATOM     24  C8  UNK     1       1.358  32.669 234.249  1.00  0.00     0.007 C 
ENDBRANCH  21  23
ENDBRANCH  12  15
ENDBRANCH   1  12
BRANCH  11  25
ATOM     25  O2  UNK     1      -0.685  35.365 235.927  1.00  0.00    -0.356 OA
ATOM     26  C20 UNK     1      -1.293  36.044 234.836  1.00  0.00     0.210 C 
ENDBRANCH  11  25
TORSDOF 5
ENDMDL
MODEL 8
REMARK VINA RESULT:      -5.9      5.558      7.673
REMARK  5 active torsions:
REMARK  status: ('A' for Active; 'I' for Inactive)
REMARK    1  A    between atoms: O1_1  and  C1_2 
REMARK    2  A    between atoms: C1_2  and  C2_3 
REMARK    3  A    between atoms: C1_2  and  C11_13 
REMARK    4  A    between atoms: C6_8  and  C7_9 
REMARK    5  A    between atoms: C19_23  and  O2_24 
ROOT
ATOM      1  C11 UNK     1       0.539  35.863 234.068  1.00  0.00    -0.014 A 
ATOM      2  C12 UNK     1      -0.432  36.264 234.950  1.00  0.00     0.027 A 
ATOM      3  C13 UNK     1      -1.769  36.143 234.605  1.00  0.00     0.089 A 
ATOM      4  N2  UNK     1      -2.210  35.648 233.461  1.00  0.00    -0.365 N 
ATOM      5  H2  UNK     1      -3.208  35.572 233.262  1.00  0.00     0.165 HD
ATOM      6  C14 UNK     1      -1.265  35.242 232.551  1.00  0.00     0.043 A 
ATOM      7  C15 UNK     1       0.127  35.341 232.801  1.00  0.00     0.002 A 
ATOM      8  C16 UNK     1       1.029  34.956 231.778  1.00  0.00     0.051 A 
ATOM      9  C17 UNK     1      -1.702  34.734 231.302  1.00  0.00     0.033 A 
ATOM     10  C18 UNK     1      -0.802  34.366 230.343  1.00  0.00     0.039 A 
ATOM     11  C19 UNK     1       0.565  34.485 230.580  1.00  0.00     0.069 A 
ENDROOT
BRANCH   1  12
ATOM     12  C1  UNK     1       2.008  35.932 234.459  1.00  0.00     0.185 C 
BRANCH  12  13
ATOM     13  O1  UNK     1       2.410  37.270 234.728  1.00  0.00    -0.389 OA
ATOM     14  H1  UNK     1       1.668  37.764 235.058  1.00  0.00     0.210 HD
ENDBRANCH  12  13
BRANCH  12  15
ATOM     15  C2  UNK     1       2.266  35.044 235.694  1.00  0.00     0.256 C 
ATOM     16  N1  UNK     1       1.520  33.768 235.659  1.00  0.00     0.096 N 
ATOM     17  C3  UNK     1       2.243  32.767 234.859  1.00  0.00     0.273 C 
ATOM     18  C5  UNK     1       1.437  33.268 237.041  1.00  0.00     0.282 C 
ATOM     19  C4  UNK     1       3.557  32.369 235.529  1.00  0.00     0.035 C 
ATOM     20  C9  UNK     1       3.862  33.392 236.617  1.00  0.00    -0.001 C 
ATOM     21  C6  UNK     1       2.818  33.221 237.730  1.00  0.00     0.040 C 
ATOM     22  C10 UNK     1       3.745  34.793 236.009  1.00  0.00     0.044 C 
BRANCH  21  23
ATOM     23  C7  UNK     1       2.946  34.238 238.823  1.00  0.00    -0.030 C 
ATOM     24  C8  UNK     1       4.003  34.462 239.574  1.00  0.00     0.007 C 
ENDBRANCH  21  23
ENDBRANCH  12  15
ENDBRANCH   1  12
BRANCH  11  25
ATOM     25  O2  UNK     1       1.417  34.136 229.565  1.00  0.00    -0.356 OA
ATOM     26  C20 UNK     1       1.816  35.151 228.654  1.00  0.00     0.210 C 
ENDBRANCH  11  25
TORSDOF 5
ENDMDL
MODEL 9
REMARK VINA RESULT:      -5.8      5.935      8.691
REMARK  5 active torsions:
REMARK  status: ('A' for Active; 'I' for Inactive)
REMARK    1  A    between atoms: O1_1  and  C1_2 
REMARK    2  A    between atoms: C1_2  and  C2_3 
REMARK    3  A    between atoms: C1_2  and  C11_13 
REMARK    4  A    between atoms: C6_8  and  C7_9 
REMARK    5  A    between atoms: C19_23  and  O2_24 
ROOT
ATOM      1  C11 UNK     1      -0.645  35.551 236.255  1.00  0.00    -0.014 A 
ATOM      2  C12 UNK     1      -1.531  36.596 236.314  1.00  0.00     0.027 A 
ATOM      3  C13 UNK     1      -1.098  37.844 236.732  1.00  0.00     0.089 A 
ATOM      4  N2  UNK     1       0.145  38.131 237.085  1.00  0.00    -0.365 N 
ATOM      5  H2  UNK     1       0.413  39.072 237.375  1.00  0.00     0.165 HD
ATOM      6  C14 UNK     1       1.058  37.106 237.043  1.00  0.00     0.043 A 
ATOM      7  C15 UNK     1       0.710  35.791 236.649  1.00  0.00     0.002 A 
ATOM      8  C16 UNK     1       1.704  34.783 236.697  1.00  0.00     0.051 A 
ATOM      9  C17 UNK     1       2.391  37.372 237.444  1.00  0.00     0.033 A 
ATOM     10  C18 UNK     1       3.324  36.375 237.471  1.00  0.00     0.039 A 
ATOM     11  C19 UNK     1       2.977  35.077 237.105  1.00  0.00     0.069 A 
ENDROOT
BRANCH   1  12
ATOM     12  C1  UNK     1      -1.094  34.192 235.738  1.00  0.00     0.185 C 
BRANCH  12  13
ATOM     13  O1  UNK     1      -2.512  34.108 235.664  1.00  0.00    -0.389 OA
ATOM     14  H1  UNK     1      -2.887  34.975 235.772  1.00  0.00     0.210 HD
ENDBRANCH  12  13
BRANCH  12  15
ATOM     15  C2  UNK     1      -0.475  33.926 234.351  1.00  0.00     0.256 C 
ATOM     16  N1  UNK     1       0.069  32.559 234.208  1.00  0.00     0.096 N 
ATOM     17  C3  UNK     1      -0.999  31.612 233.850  1.00  0.00     0.273 C 
ATOM     18  C5  UNK     1       1.041  32.584 233.103  1.00  0.00     0.282 C 
ATOM     19  C4  UNK     1      -1.547  31.901 232.453  1.00  0.00     0.035 C 
ATOM     20  C9  UNK     1      -1.066  33.286 232.033  1.00  0.00    -0.001 C 
ATOM     21  C6  UNK     1       0.454  33.210 231.820  1.00  0.00     0.040 C 
ATOM     22  C10 UNK     1      -1.381  34.270 233.164  1.00  0.00     0.044 C 
BRANCH  21  23
ATOM     23  C7  UNK     1       1.072  34.536 231.497  1.00  0.00    -0.030 C 
ATOM     24  C8  UNK     1       1.472  34.954 230.315  1.00  0.00     0.007 C 
ENDBRANCH  21  23
ENDBRANCH  12  15
ENDBRANCH   1  12
BRANCH  11  25
ATOM     25  O2  UNK     1       3.948  34.113 237.190  1.00  0.00    -0.356 OA
ATOM     26  C20 UNK     1       3.649  32.934 237.924  1.00  0.00     0.210 C 
ENDBRANCH  11  25
TORSDOF 5
ENDMDL
