MODEL 1
REMARK VINA RESULT:      -5.2      0.000      0.000
REMARK  9 active torsions:
REMARK  status: ('A' for Active; 'I' for Inactive)
REMARK    1  A    between atoms: C1_2  and  O2_3 
REMARK    2  A    between atoms: C1_2  and  C6_9 
REMARK    3  A    between atoms: O2_3  and  C2_4 
REMARK    4  A    between atoms: C2_4  and  C3_5 
REMARK    5  A    between atoms: C3_5  and  N1_6 
REMARK    6  A    between atoms: C9_12  and  N2_15 
REMARK    7  A    between atoms: N2_15  and  C12_16 
REMARK    8  A    between atoms: C12_16  and  C13_17 
REMARK    9  A    between atoms: C13_17  and  C14_18 
ROOT
ATOM      1  C6  UNK     1      -2.631  39.476 227.611  1.00  0.00     0.039 A 
ATOM      2  C7  UNK     1      -1.691  40.004 228.482  1.00  0.00     0.019 A 
ATOM      3  C8  UNK     1      -0.824  41.010 228.076  1.00  0.00     0.024 A 
ATOM      4  C9  UNK     1      -0.896  41.515 226.781  1.00  0.00     0.008 A 
ATOM      5  C10 UNK     1      -1.832  40.985 225.899  1.00  0.00     0.024 A 
ATOM      6  C11 UNK     1      -2.698  39.976 226.314  1.00  0.00     0.019 A 
ENDROOT
BRANCH   1   7
ATOM      7  C1  UNK     1      -3.552  38.376 228.077  1.00  0.00     0.293 C 
ATOM      8  O1  UNK     1      -4.632  38.204 227.541  1.00  0.00    -0.259 OA
BRANCH   7   9
ATOM      9  O2  UNK     1      -3.184  37.489 229.178  1.00  0.00    -0.316 OA
BRANCH   9  10
ATOM     10  C2  UNK     1      -2.471  36.267 228.981  1.00  0.00     0.198 C 
BRANCH  10  11
ATOM     11  C3  UNK     1      -0.995  36.448 229.332  1.00  0.00     0.142 C 
BRANCH  11  12
ATOM     12  N1  UNK     1      -0.230  35.712 228.331  1.00  0.00    -0.419 N 
ATOM     13  C4  UNK     1       1.183  36.021 228.137  1.00  0.00     0.142 C 
ATOM     14  C5  UNK     1      -0.853  34.660 227.527  1.00  0.00     0.142 C 
ENDBRANCH  11  12
ENDBRANCH  10  11
ENDBRANCH   9  10
ENDBRANCH   7   9
ENDBRANCH   1   7
BRANCH   4  15
ATOM     15  N2  UNK     1      -0.062  42.480 226.336  1.00  0.00    -0.293 NA
ATOM     16  H15 UNK     1      -0.028  42.375 225.342  1.00  0.00     0.127 HD
BRANCH  15  17
ATOM     17  C12 UNK     1       1.322  42.607 226.770  1.00  0.00     0.092 C 
BRANCH  17  18
ATOM     18  C13 UNK     1       2.222  41.517 226.223  1.00  0.00     0.014 C 
BRANCH  18  19
ATOM     19  C14 UNK     1       2.837  40.670 227.327  1.00  0.00    -0.003 C 
ATOM     20  C15 UNK     1       3.373  41.562 228.427  1.00  0.00     0.005 C 
ENDBRANCH  18  19
ENDBRANCH  17  18
ENDBRANCH  15  17
ENDBRANCH   4  15
TORSDOF 9
ENDMDL
MODEL 2
REMARK VINA RESULT:      -5.2      3.174      6.133
REMARK  9 active torsions:
REMARK  status: ('A' for Active; 'I' for Inactive)
REMARK    1  A    between atoms: C1_2  and  O2_3 
REMARK    2  A    between atoms: C1_2  and  C6_9 
REMARK    3  A    between atoms: O2_3  and  C2_4 
REMARK    4  A    between atoms: C2_4  and  C3_5 
REMARK    5  A    between atoms: C3_5  and  N1_6 
REMARK    6  A    between atoms: C9_12  and  N2_15 
REMARK    7  A    between atoms: N2_15  and  C12_16 
REMARK    8  A    between atoms: C12_16  and  C13_17 
REMARK    9  A    between atoms: C13_17  and  C14_18 
ROOT
ATOM      1  C6  UNK     1      -1.826  40.507 227.074  1.00  0.00     0.039 A 
ATOM      2  C7  UNK     1      -2.873  39.599 227.056  1.00  0.00     0.019 A 
ATOM      3  C8  UNK     1      -3.586  39.351 225.890  1.00  0.00     0.024 A 
ATOM      4  C9  UNK     1      -3.249  40.009 224.711  1.00  0.00     0.008 A 
ATOM      5  C10 UNK     1      -2.204  40.927 224.723  1.00  0.00     0.024 A 
ATOM      6  C11 UNK     1      -1.493  41.169 225.896  1.00  0.00     0.019 A 
ENDROOT
BRANCH   1   7
ATOM      7  C1  UNK     1      -1.078  40.763 228.358  1.00  0.00     0.293 C 
ATOM      8  O1  UNK     1      -1.007  39.902 229.216  1.00  0.00    -0.259 OA
BRANCH   7   9
ATOM      9  O2  UNK     1      -0.420  42.042 228.615  1.00  0.00    -0.316 OA
BRANCH   9  10
ATOM     10  C2  UNK     1       0.915  42.139 229.114  1.00  0.00     0.198 C 
BRANCH  10  11
ATOM     11  C3  UNK     1       1.865  42.597 228.009  1.00  0.00     0.142 C 
BRANCH  11  12
ATOM     12  N1  UNK     1       3.077  41.794 228.135  1.00  0.00    -0.419 N 
ATOM     13  C4  UNK     1       4.183  42.286 228.949  1.00  0.00     0.142 C 
ATOM     14  C5  UNK     1       3.196  40.498 227.467  1.00  0.00     0.142 C 
ENDBRANCH  11  12
ENDBRANCH  10  11
ENDBRANCH   9  10
ENDBRANCH   7   9
ENDBRANCH   1   7
BRANCH   4  15
ATOM     15  N2  UNK     1      -3.924  39.814 223.558  1.00  0.00    -0.293 NA
ATOM     16  H15 UNK     1      -3.707  40.598 222.977  1.00  0.00     0.127 HD
BRANCH  15  17
ATOM     17  C12 UNK     1      -5.371  39.659 223.492  1.00  0.00     0.092 C 
BRANCH  17  18
ATOM     18  C13 UNK     1      -6.100  40.961 223.228  1.00  0.00     0.014 C 
BRANCH  18  19
ATOM     19  C14 UNK     1      -6.644  41.586 224.504  1.00  0.00    -0.003 C 
ATOM     20  C15 UNK     1      -6.087  42.984 224.674  1.00  0.00     0.005 C 
ENDBRANCH  18  19
ENDBRANCH  17  18
ENDBRANCH  15  17
ENDBRANCH   4  15
TORSDOF 9
ENDMDL
MODEL 3
REMARK VINA RESULT:      -5.2      1.110      1.896
REMARK  9 active torsions:
REMARK  status: ('A' for Active; 'I' for Inactive)
REMARK    1  A    between atoms: C1_2  and  O2_3 
REMARK    2  A    between atoms: C1_2  and  C6_9 
REMARK    3  A    between atoms: O2_3  and  C2_4 
REMARK    4  A    between atoms: C2_4  and  C3_5 
REMARK    5  A    between atoms: C3_5  and  N1_6 
REMARK    6  A    between atoms: C9_12  and  N2_15 
REMARK    7  A    between atoms: N2_15  and  C12_16 
REMARK    8  A    between atoms: C12_16  and  C13_17 
REMARK    9  A    between atoms: C13_17  and  C14_18 
ROOT
ATOM      1  C6  UNK     1      -2.693  39.408 227.476  1.00  0.00     0.039 A 
ATOM      2  C7  UNK     1      -2.730  39.897 226.179  1.00  0.00     0.019 A 
ATOM      3  C8  UNK     1      -1.877  40.915 225.772  1.00  0.00     0.024 A 
ATOM      4  C9  UNK     1      -0.958  41.455 226.666  1.00  0.00     0.008 A 
ATOM      5  C10 UNK     1      -0.919  40.975 227.971  1.00  0.00     0.024 A 
ATOM      6  C11 UNK     1      -1.777  39.953 228.371  1.00  0.00     0.019 A 
ENDROOT
BRANCH   1   7
ATOM      7  C1  UNK     1      -3.639  38.310 227.891  1.00  0.00     0.293 C 
ATOM      8  O1  UNK     1      -4.763  38.252 227.425  1.00  0.00    -0.259 OA
BRANCH   7   9
ATOM      9  O2  UNK     1      -3.246  37.290 228.860  1.00  0.00    -0.316 OA
BRANCH   9  10
ATOM     10  C2  UNK     1      -2.260  36.294 228.578  1.00  0.00     0.198 C 
BRANCH  10  11
ATOM     11  C3  UNK     1      -1.099  36.401 229.564  1.00  0.00     0.142 C 
BRANCH  11  12
ATOM     12  N1  UNK     1      -1.589  35.908 230.848  1.00  0.00    -0.419 N 
ATOM     13  C4  UNK     1      -1.493  36.760 232.028  1.00  0.00     0.142 C 
ATOM     14  C5  UNK     1      -2.186  34.578 230.968  1.00  0.00     0.142 C 
ENDBRANCH  11  12
ENDBRANCH  10  11
ENDBRANCH   9  10
ENDBRANCH   7   9
ENDBRANCH   1   7
BRANCH   4  15
ATOM     15  N2  UNK     1      -0.121  42.458 226.322  1.00  0.00    -0.293 NA
ATOM     16  H15 UNK     1      -0.044  42.420 225.326  1.00  0.00     0.127 HD
BRANCH  15  17
ATOM     17  C12 UNK     1       1.242  42.573 226.822  1.00  0.00     0.092 C 
BRANCH  17  18
ATOM     18  C13 UNK     1       2.171  41.507 226.277  1.00  0.00     0.014 C 
BRANCH  18  19
ATOM     19  C14 UNK     1       2.764  40.641 227.378  1.00  0.00    -0.003 C 
ATOM     20  C15 UNK     1       3.494  41.508 228.382  1.00  0.00     0.005 C 
ENDBRANCH  18  19
ENDBRANCH  17  18
ENDBRANCH  15  17
ENDBRANCH   4  15
TORSDOF 9
ENDMDL
MODEL 4
REMARK VINA RESULT:      -5.0      9.387     11.660
REMARK  9 active torsions:
REMARK  status: ('A' for Active; 'I' for Inactive)
REMARK    1  A    between atoms: C1_2  and  O2_3 
REMARK    2  A    between atoms: C1_2  and  C6_9 
REMARK    3  A    between atoms: O2_3  and  C2_4 
REMARK    4  A    between atoms: C2_4  and  C3_5 
REMARK    5  A    between atoms: C3_5  and  N1_6 
REMARK    6  A    between atoms: C9_12  and  N2_15 
REMARK    7  A    between atoms: N2_15  and  C12_16 
REMARK    8  A    between atoms: C12_16  and  C13_17 
REMARK    9  A    between atoms: C13_17  and  C14_18 
ROOT
ATOM      1  C6  UNK     1       3.154  36.606 237.225  1.00  0.00     0.039 A 
ATOM      2  C7  UNK     1       3.180  35.703 236.173  1.00  0.00     0.019 A 
ATOM      3  C8  UNK     1       2.198  35.717 235.191  1.00  0.00     0.024 A 
ATOM      4  C9  UNK     1       1.171  36.654 235.245  1.00  0.00     0.008 A 
ATOM      5  C10 UNK     1       1.133  37.559 236.301  1.00  0.00     0.024 A 
ATOM      6  C11 UNK     1       2.122  37.538 237.281  1.00  0.00     0.019 A 
ENDROOT
BRANCH   1   7
ATOM      7  C1  UNK     1       4.228  36.558 238.282  1.00  0.00     0.293 C 
ATOM      8  O1  UNK     1       5.298  37.110 238.102  1.00  0.00    -0.259 OA
BRANCH   7   9
ATOM      9  O2  UNK     1       4.025  35.853 239.545  1.00  0.00    -0.316 OA
BRANCH   9  10
ATOM     10  C2  UNK     1       4.570  34.557 239.804  1.00  0.00     0.198 C 
BRANCH  10  11
ATOM     11  C3  UNK     1       3.664  33.472 239.226  1.00  0.00     0.142 C 
BRANCH  11  12
ATOM     12  N1  UNK     1       4.527  32.548 238.496  1.00  0.00    -0.419 N 
ATOM     13  C4  UNK     1       5.639  31.905 239.187  1.00  0.00     0.142 C 
ATOM     14  C5  UNK     1       4.286  32.246 237.084  1.00  0.00     0.142 C 
ENDBRANCH  11  12
ENDBRANCH  10  11
ENDBRANCH   9  10
ENDBRANCH   7   9
ENDBRANCH   1   7
BRANCH   4  15
ATOM     15  N2  UNK     1       0.184  36.695 234.323  1.00  0.00    -0.293 NA
ATOM     16  H15 UNK     1       0.267  37.583 233.872  1.00  0.00     0.127 HD
BRANCH  15  17
ATOM     17  C12 UNK     1      -1.227  36.547 234.652  1.00  0.00     0.092 C 
BRANCH  17  18
ATOM     18  C13 UNK     1      -1.590  35.149 235.112  1.00  0.00     0.014 C 
BRANCH  18  19
ATOM     19  C14 UNK     1      -1.790  35.072 236.618  1.00  0.00    -0.003 C 
ATOM     20  C15 UNK     1      -0.707  34.217 237.242  1.00  0.00     0.005 C 
ENDBRANCH  18  19
ENDBRANCH  17  18
ENDBRANCH  15  17
ENDBRANCH   4  15
TORSDOF 9
ENDMDL
MODEL 5
REMARK VINA RESULT:      -5.0     10.121     12.385
REMARK  9 active torsions:
REMARK  status: ('A' for Active; 'I' for Inactive)
REMARK    1  A    between atoms: C1_2  and  O2_3 
REMARK    2  A    between atoms: C1_2  and  C6_9 
REMARK    3  A    between atoms: O2_3  and  C2_4 
REMARK    4  A    between atoms: C2_4  and  C3_5 
REMARK    5  A    between atoms: C3_5  and  N1_6 
REMARK    6  A    between atoms: C9_12  and  N2_15 
REMARK    7  A    between atoms: N2_15  and  C12_16 
REMARK    8  A    between atoms: C12_16  and  C13_17 
REMARK    9  A    between atoms: C13_17  and  C14_18 
ROOT
ATOM      1  C6  UNK     1       2.657  36.937 237.247  1.00  0.00     0.039 A 
ATOM      2  C7  UNK     1       3.776  37.660 237.627  1.00  0.00     0.019 A 
ATOM      3  C8  UNK     1       4.707  37.129 238.510  1.00  0.00     0.024 A 
ATOM      4  C9  UNK     1       4.532  35.846 239.022  1.00  0.00     0.008 A 
ATOM      5  C10 UNK     1       3.408  35.117 238.651  1.00  0.00     0.024 A 
ATOM      6  C11 UNK     1       2.480  35.657 237.764  1.00  0.00     0.019 A 
ENDROOT
BRANCH   1   7
ATOM      7  C1  UNK     1       1.658  37.545 236.295  1.00  0.00     0.293 C 
ATOM      8  O1  UNK     1       1.827  37.472 235.091  1.00  0.00    -0.259 OA
BRANCH   7   9
ATOM      9  O2  UNK     1       0.467  38.237 236.779  1.00  0.00    -0.316 OA
BRANCH   9  10
ATOM     10  C2  UNK     1      -0.859  37.834 236.428  1.00  0.00     0.198 C 
BRANCH  10  11
ATOM     11  C3  UNK     1      -1.006  36.319 236.553  1.00  0.00     0.142 C 
BRANCH  11  12
ATOM     12  N1  UNK     1      -1.781  35.874 235.398  1.00  0.00    -0.419 N 
ATOM     13  C4  UNK     1      -2.843  34.891 235.581  1.00  0.00     0.142 C 
ATOM     14  C5  UNK     1      -1.517  36.408 234.061  1.00  0.00     0.142 C 
ENDBRANCH  11  12
ENDBRANCH  10  11
ENDBRANCH   9  10
ENDBRANCH   7   9
ENDBRANCH   1   7
BRANCH   4  15
ATOM     15  N2  UNK     1       5.401  35.295 239.897  1.00  0.00    -0.293 NA
ATOM     16  H15 UNK     1       6.258  35.178 239.396  1.00  0.00     0.127 HD
BRANCH  15  17
ATOM     17  C12 UNK     1       5.161  34.029 240.575  1.00  0.00     0.092 C 
BRANCH  17  18
ATOM     18  C13 UNK     1       6.435  33.286 240.922  1.00  0.00     0.014 C 
BRANCH  18  19
ATOM     19  C14 UNK     1       6.676  32.096 240.006  1.00  0.00    -0.003 C 
ATOM     20  C15 UNK     1       8.131  31.681 240.067  1.00  0.00     0.005 C 
ENDBRANCH  18  19
ENDBRANCH  17  18
ENDBRANCH  15  17
ENDBRANCH   4  15
TORSDOF 9
ENDMDL
MODEL 6
REMARK VINA RESULT:      -5.0      9.284     11.386
REMARK  9 active torsions:
REMARK  status: ('A' for Active; 'I' for Inactive)
REMARK    1  A    between atoms: C1_2  and  O2_3 
REMARK    2  A    between atoms: C1_2  and  C6_9 
REMARK    3  A    between atoms: O2_3  and  C2_4 
REMARK    4  A    between atoms: C2_4  and  C3_5 
REMARK    5  A    between atoms: C3_5  and  N1_6 
REMARK    6  A    between atoms: C9_12  and  N2_15 
REMARK    7  A    between atoms: N2_15  and  C12_16 
REMARK    8  A    between atoms: C12_16  and  C13_17 
REMARK    9  A    between atoms: C13_17  and  C14_18 
ROOT
ATOM      1  C6  UNK     1       3.491  36.446 237.419  1.00  0.00     0.039 A 
ATOM      2  C7  UNK     1       2.581  37.486 237.316  1.00  0.00     0.019 A 
ATOM      3  C8  UNK     1       1.760  37.612 236.203  1.00  0.00     0.024 A 
ATOM      4  C9  UNK     1       1.833  36.680 235.172  1.00  0.00     0.008 A 
ATOM      5  C10 UNK     1       2.749  35.638 235.264  1.00  0.00     0.024 A 
ATOM      6  C11 UNK     1       3.568  35.518 236.384  1.00  0.00     0.019 A 
ENDROOT
BRANCH   1   7
ATOM      7  C1  UNK     1       4.378  36.342 238.635  1.00  0.00     0.293 C 
ATOM      8  O1  UNK     1       5.431  36.951 238.687  1.00  0.00    -0.259 OA
BRANCH   7   9
ATOM      9  O2  UNK     1       4.008  35.513 239.779  1.00  0.00    -0.316 OA
BRANCH   9  10
ATOM     10  C2  UNK     1       4.595  34.234 240.030  1.00  0.00     0.198 C 
BRANCH  10  11
ATOM     11  C3  UNK     1       3.844  33.145 239.268  1.00  0.00     0.142 C 
BRANCH  11  12
ATOM     12  N1  UNK     1       4.853  32.264 238.687  1.00  0.00    -0.419 N 
ATOM     13  C4  UNK     1       4.712  31.825 237.303  1.00  0.00     0.142 C 
ATOM     14  C5  UNK     1       6.009  31.823 239.468  1.00  0.00     0.142 C 
ENDBRANCH  11  12
ENDBRANCH  10  11
ENDBRANCH   9  10
ENDBRANCH   7   9
ENDBRANCH   1   7
BRANCH   4  15
ATOM     15  N2  UNK     1       1.068  36.772 234.062  1.00  0.00    -0.293 NA
ATOM     16  H15 UNK     1       0.774  37.726 234.010  1.00  0.00     0.127 HD
BRANCH  15  17
ATOM     17  C12 UNK     1      -0.130  35.974 233.846  1.00  0.00     0.092 C 
BRANCH  17  18
ATOM     18  C13 UNK     1       0.092  34.802 232.911  1.00  0.00     0.014 C 
BRANCH  18  19
ATOM     19  C14 UNK     1       1.265  35.030 231.970  1.00  0.00    -0.003 C 
ATOM     20  C15 UNK     1       0.799  34.945 230.532  1.00  0.00     0.005 C 
ENDBRANCH  18  19
ENDBRANCH  17  18
ENDBRANCH  15  17
ENDBRANCH   4  15
TORSDOF 9
ENDMDL
MODEL 7
REMARK VINA RESULT:      -5.0      2.647      4.312
REMARK  9 active torsions:
REMARK  status: ('A' for Active; 'I' for Inactive)
REMARK    1  A    between atoms: C1_2  and  O2_3 
REMARK    2  A    between atoms: C1_2  and  C6_9 
REMARK    3  A    between atoms: O2_3  and  C2_4 
REMARK    4  A    between atoms: C2_4  and  C3_5 
REMARK    5  A    between atoms: C3_5  and  N1_6 
REMARK    6  A    between atoms: C9_12  and  N2_15 
REMARK    7  A    between atoms: N2_15  and  C12_16 
REMARK    8  A    between atoms: C12_16  and  C13_17 
REMARK    9  A    between atoms: C13_17  and  C14_18 
ROOT
ATOM      1  C6  UNK     1      -2.754  39.654 227.155  1.00  0.00     0.039 A 
ATOM      2  C7  UNK     1      -1.849  40.004 228.146  1.00  0.00     0.019 A 
ATOM      3  C8  UNK     1      -0.888  40.982 227.925  1.00  0.00     0.024 A 
ATOM      4  C9  UNK     1      -0.827  41.638 226.700  1.00  0.00     0.008 A 
ATOM      5  C10 UNK     1      -1.727  41.288 225.698  1.00  0.00     0.024 A 
ATOM      6  C11 UNK     1      -2.688  40.307 225.928  1.00  0.00     0.019 A 
ENDROOT
BRANCH   1   7
ATOM      7  C1  UNK     1      -3.779  38.580 227.420  1.00  0.00     0.293 C 
ATOM      8  O1  UNK     1      -4.086  38.286 228.561  1.00  0.00    -0.259 OA
BRANCH   7   9
ATOM      9  O2  UNK     1      -4.430  37.861 226.328  1.00  0.00    -0.316 OA
BRANCH   9  10
ATOM     10  C2  UNK     1      -5.681  38.269 225.771  1.00  0.00     0.198 C 
BRANCH  10  11
ATOM     11  C3  UNK     1      -5.567  38.414 224.255  1.00  0.00     0.142 C 
BRANCH  11  12
ATOM     12  N1  UNK     1      -6.302  39.622 223.890  1.00  0.00    -0.419 N 
ATOM     13  C4  UNK     1      -6.837  39.757 222.540  1.00  0.00     0.142 C 
ATOM     14  C5  UNK     1      -6.519  40.695 224.861  1.00  0.00     0.142 C 
ENDBRANCH  11  12
ENDBRANCH  10  11
ENDBRANCH   9  10
ENDBRANCH   7   9
ENDBRANCH   1   7
BRANCH   4  15
ATOM     15  N2  UNK     1       0.101  42.582 226.433  1.00  0.00    -0.293 NA
ATOM     16  H15 UNK     1      -0.115  42.929 225.521  1.00  0.00     0.127 HD
BRANCH  15  17
ATOM     17  C12 UNK     1       1.533  42.321 226.430  1.00  0.00     0.092 C 
BRANCH  17  18
ATOM     18  C13 UNK     1       2.208  42.671 227.742  1.00  0.00     0.014 C 
BRANCH  18  19
ATOM     19  C14 UNK     1       3.059  41.528 228.274  1.00  0.00    -0.003 C 
ATOM     20  C15 UNK     1       3.047  40.373 227.296  1.00  0.00     0.005 C 
ENDBRANCH  18  19
ENDBRANCH  17  18
ENDBRANCH  15  17
ENDBRANCH   4  15
TORSDOF 9
ENDMDL
MODEL 8
REMARK VINA RESULT:      -4.9      2.693      3.885
REMARK  9 active torsions:
REMARK  status: ('A' for Active; 'I' for Inactive)
REMARK    1  A    between atoms: C1_2  and  O2_3 
REMARK    2  A    between atoms: C1_2  and  C6_9 
REMARK    3  A    between atoms: O2_3  and  C2_4 
REMARK    4  A    between atoms: C2_4  and  C3_5 
REMARK    5  A    between atoms: C3_5  and  N1_6 
REMARK    6  A    between atoms: C9_12  and  N2_15 
REMARK    7  A    between atoms: N2_15  and  C12_16 
REMARK    8  A    between atoms: C12_16  and  C13_17 
REMARK    9  A    between atoms: C13_17  and  C14_18 
ROOT
ATOM      1  C6  UNK     1      -2.435  39.347 227.828  1.00  0.00     0.039 A 
ATOM      2  C7  UNK     1      -2.607  40.029 226.633  1.00  0.00     0.019 A 
ATOM      3  C8  UNK     1      -1.767  41.078 226.280  1.00  0.00     0.024 A 
ATOM      4  C9  UNK     1      -0.726  41.454 227.123  1.00  0.00     0.008 A 
ATOM      5  C10 UNK     1      -0.552  40.780 228.327  1.00  0.00     0.024 A 
ATOM      6  C11 UNK     1      -1.398  39.729 228.674  1.00  0.00     0.019 A 
ENDROOT
BRANCH   1   7
ATOM      7  C1  UNK     1      -3.369  38.220 228.189  1.00  0.00     0.293 C 
ATOM      8  O1  UNK     1      -3.028  37.365 228.986  1.00  0.00    -0.259 OA
BRANCH   7   9
ATOM      9  O2  UNK     1      -4.702  38.115 227.601  1.00  0.00    -0.316 OA
BRANCH   9  10
ATOM     10  C2  UNK     1      -5.045  37.120 226.634  1.00  0.00     0.198 C 
BRANCH  10  11
ATOM     11  C3  UNK     1      -6.359  37.479 225.943  1.00  0.00     0.142 C 
BRANCH  11  12
ATOM     12  N1  UNK     1      -7.273  36.362 226.168  1.00  0.00    -0.419 N 
ATOM     13  C4  UNK     1      -6.741  35.079 226.614  1.00  0.00     0.142 C 
ATOM     14  C5  UNK     1      -8.713  36.513 225.965  1.00  0.00     0.142 C 
ENDBRANCH  11  12
ENDBRANCH  10  11
ENDBRANCH   9  10
ENDBRANCH   7   9
ENDBRANCH   1   7
BRANCH   4  15
ATOM     15  N2  UNK     1       0.104  42.479 226.830  1.00  0.00    -0.293 NA
ATOM     16  H15 UNK     1      -0.219  42.852 225.961  1.00  0.00     0.127 HD
BRANCH  15  17
ATOM     17  C12 UNK     1       1.545  42.329 226.689  1.00  0.00     0.092 C 
BRANCH  17  18
ATOM     18  C13 UNK     1       2.321  42.871 227.873  1.00  0.00     0.014 C 
BRANCH  18  19
ATOM     19  C14 UNK     1       3.136  41.792 228.570  1.00  0.00    -0.003 C 
ATOM     20  C15 UNK     1       4.401  42.391 229.149  1.00  0.00     0.005 C 
ENDBRANCH  18  19
ENDBRANCH  17  18
ENDBRANCH  15  17
ENDBRANCH   4  15
TORSDOF 9
ENDMDL
MODEL 9
REMARK VINA RESULT:      -4.8      8.200     10.201
REMARK  9 active torsions:
REMARK  status: ('A' for Active; 'I' for Inactive)
REMARK    1  A    between atoms: C1_2  and  O2_3 
REMARK    2  A    between atoms: C1_2  and  C6_9 
REMARK    3  A    between atoms: O2_3  and  C2_4 
REMARK    4  A    between atoms: C2_4  and  C3_5 
REMARK    5  A    between atoms: C3_5  and  N1_6 
REMARK    6  A    between atoms: C9_12  and  N2_15 
REMARK    7  A    between atoms: N2_15  and  C12_16 
REMARK    8  A    between atoms: C12_16  and  C13_17 
REMARK    9  A    between atoms: C13_17  and  C14_18 
ROOT
ATOM      1  C6  UNK     1      -0.242  35.845 236.697  1.00  0.00     0.039 A 
ATOM      2  C7  UNK     1      -0.076  37.212 236.851  1.00  0.00     0.019 A 
ATOM      3  C8  UNK     1       1.191  37.775 236.939  1.00  0.00     0.024 A 
ATOM      4  C9  UNK     1       2.322  36.967 236.860  1.00  0.00     0.008 A 
ATOM      5  C10 UNK     1       2.163  35.593 236.712  1.00  0.00     0.024 A 
ATOM      6  C11 UNK     1       0.889  35.037 236.624  1.00  0.00     0.019 A 
ENDROOT
BRANCH   1   7
ATOM      7  C1  UNK     1      -1.630  35.262 236.616  1.00  0.00     0.293 C 
ATOM      8  O1  UNK     1      -2.035  34.506 237.481  1.00  0.00    -0.259 OA
BRANCH   7   9
ATOM      9  O2  UNK     1      -2.527  35.578 235.508  1.00  0.00    -0.316 OA
BRANCH   9  10
ATOM     10  C2  UNK     1      -2.075  35.703 234.158  1.00  0.00     0.198 C 
BRANCH  10  11
ATOM     11  C3  UNK     1      -1.679  34.338 233.599  1.00  0.00     0.142 C 
BRANCH  11  12
ATOM     12  N1  UNK     1      -0.251  34.402 233.302  1.00  0.00    -0.419 N 
ATOM     13  C4  UNK     1       0.363  35.691 233.003  1.00  0.00     0.142 C 
ATOM     14  C5  UNK     1       0.576  33.195 233.311  1.00  0.00     0.142 C 
ENDBRANCH  11  12
ENDBRANCH  10  11
ENDBRANCH   9  10
ENDBRANCH   7   9
ENDBRANCH   1   7
BRANCH   4  15
ATOM     15  N2  UNK     1       3.573  37.466 236.958  1.00  0.00    -0.293 NA
ATOM     16  H15 UNK     1       3.997  37.320 236.065  1.00  0.00     0.127 HD
BRANCH  15  17
ATOM     17  C12 UNK     1       4.545  37.007 237.940  1.00  0.00     0.092 C 
BRANCH  17  18
ATOM     18  C13 UNK     1       4.074  37.175 239.371  1.00  0.00     0.014 C 
BRANCH  18  19
ATOM     19  C14 UNK     1       4.531  36.033 240.266  1.00  0.00    -0.003 C 
ATOM     20  C15 UNK     1       4.442  34.720 239.517  1.00  0.00     0.005 C 
ENDBRANCH  18  19
ENDBRANCH  17  18
ENDBRANCH  15  17
ENDBRANCH   4  15
TORSDOF 9
ENDMDL
